<?xml version="1.0" encoding="UTF-8"?>

<!-- generated on Fri Sep 15 18:25:52 2017 by SUMO duarouter Version 0.30.0
<?xml version="1.0" encoding="UTF-8"?>

<configuration xmlns:xsi="http://www.w3.org/2001/XMLSchema-instance" xsi:noNamespaceSchemaLocation="http://sumo.dlr.de/xsd/duarouterConfiguration.xsd">

    <input>
        <net-file value="map.net.xml"/>
        <trip-files value="trips.trips.xml"/>
    </input>

    <output>
        <output-file value="map.rou.xml"/>
    </output>

    <processing>
        <ignore-errors value="true"/>
    </processing>

    <time>
        <begin value="0"/>
        <end value="3600"/>
    </time>

    <report>
        <no-step-log value="true"/>
    </report>

</configuration>
-->

<routes xmlns:xsi="http://www.w3.org/2001/XMLSchema-instance" xsi:noNamespaceSchemaLocation="http://sumo.dlr.de/xsd/routes_file.xsd">
    <vehicle id="1" depart="1.00">
        <route edges="-7142970#0 7143033 7143006#0 7143006#1 7143006#2 7143006#3 7142920 -48909326 -7142820 48909325 7143176#0 7143176#1 7143176#2 -246720356#2 -246720356#1 -246720356#0 -7142922 -7143014 -7143045 -7143051 -7142957#1 -7142957#0 -7142281#4 -7142281#3 -7142281#2 -7142223#1 -7142223#0 7142223#0"/>
    </vehicle>
    <vehicle id="3" depart="3.00">
        <route edges="7143053 7142859#0 7142859#1 -26235948 7143182 274544983#0 274544983#1 274544983#2 274544983#3 274544983#4 146451992#0 146451992#1 36145558#0 36145558#1 482983960#0 482983960#1 7143241 7143232 7143223#0 7143223#1 7143178#0 7143178#1 48909325 7143176#0 7143176#1 7143176#2 -246720356#2 -246720356#1 -246720356#0 -7142922 -7143014 -7143045 -7143051 -7142957#1 -7142957#0 -7142281#4 -7142281#3 -7142281#2 -7142223#1"/>
    </vehicle>
    <vehicle id="4" depart="4.00">
        <route edges="7142855#1 -7142855#1"/>
    </vehicle>
    <vehicle id="8" depart="8.00">
        <route edges="7142585#1 -7142585#1 -7142585#0 84771611 -7142982#1 -7142982#0 -7143089 7143091#0 7143091#1 7143094 100715935 100715934 36145562 7143228 146451992#0 146451992#1 36145558#0 36145558#1 482983960#0 482983960#1 7143241 7143232 7143223#0 7143223#1 7143178#0 7143178#1 48909325 7143176#0 7143176#1 7143176#2 -246720356#2 -246720356#1 -246720356#0 -7142922 -7143014 -7143045 -7143051 -7142957#1 -7142957#0 -7142281#4 7142360#0 7142360#1 7142360#2 7142360#3 7142360#4 7142360#5 7142301#6 7142301#7 -7142246"/>
    </vehicle>
    <vehicle id="21" depart="21.00">
        <route edges="-7142870#2 -7142870#1 -7142870#0 7142920 -48909326 7143224#0 7143224#1"/>
    </vehicle>
    <vehicle id="23" depart="23.00">
        <route edges="-7142733 -7142851 7142922 246720356#0 246720356#1 246720356#2 7143175 7143174#0 7143174#1 7143179 7143224#0 7143224#1 7143224#2 -7143227 7143241 7143232 7143223#0 7143223#1"/>
    </vehicle>
    <vehicle id="25" depart="25.00">
        <route edges="-7142625 7142625 -7142733 -7142851 7142922 246720356#0 246720356#1 246720356#2 7143175 7143174#0 7143174#1 7143179 48909326 -7142920 7142870#0 7142870#1"/>
    </vehicle>
    <vehicle id="28" depart="28.00">
        <route edges="7142369#0 7142369#1 7142369#2 -7142301#0 -7142903 -7142910 -7143058 -7142880"/>
    </vehicle>
    <vehicle id="29" depart="29.00">
        <route edges="7142360#0 -7142360#0 7142281#4 7142957#0 7142957#1 7143051 7143045 7143014 7142922 246720356#0 246720356#1 246720356#2 7143175 7143174#0 7143174#1 7143179 7143224#0 7143224#1 7143224#2 7143233#0 7143233#1 500545383#0 500545383#1 500545383#2 36145560#0 36145560#1 7143234 36145562 128766406#0 128766406#1 128766406#2 128766406#3 128766406#4 -7143182 26235948 -26235949 -7143169 7143149#0 7143149#1 274545001#0 274545001#1 7143129#0"/>
    </vehicle>
    <vehicle id="38" depart="38.00">
        <route edges="36145558#0 36145558#1 482983960#0 482983960#1 7143227 7143233#0 7143233#1 500545383#0 500545383#1 500545383#2 36145560#0 36145560#1 7143234 36145562 128766406#0 128766406#1 128766406#2 128766406#3 128766406#4 -7143182 26235948 -26235949 -7143169 7143149#0 7143149#1 7143149#2 7143141#0 7143141#1 7143141#2 -7143115 -274445039 -7142979"/>
    </vehicle>
    <vehicle id="39" depart="39.00">
        <route edges="7143051 7143045 7143014 7142922 246720356#0 246720356#1 246720356#2 7143175 7143174#0 7143174#1 7143179 48909326 -7142920 -7143006#3 -7143006#2 -7143022 -7143011#0 -7142849#2"/>
    </vehicle>
    <vehicle id="42" depart="42.00">
        <route edges="7142933 7143042 7143051 7143045 7143014 7142922 246720356#0 246720356#1 246720356#2 7143175 7143174#0 7143174#1 7143179 7143224#0 7143224#1 7143224#2 -7143227 7143241 7142436#0 7142436#1 7142436#2"/>
    </vehicle>
    <vehicle id="44" depart="44.00">
        <route edges="26436293#0 7142612 7142930 7142957#0 7142957#1 7143051 7143045 7143014 7142922 246720356#0 246720356#1 246720356#2 7143175 7143174#0 7143174#1 7143179 48909326 -7142920 7142870#0 7142870#1 7142818 7143065 7142915#2 7142915#3 7142676 7142578#0 7142578#1 -7142578#1"/>
    </vehicle>
    <vehicle id="52" depart="52.00">
        <route edges="7142243 -7142917#1 -7142917#0 7142977#1 274544996#0 274544996#1 274545006#0 274545006#1 7143114 7143207 274971483 7143219#0 7143219#1 7143232 7143223#0 7143223#1 7143178#0 7143178#1 48909325 7143176#0 7143176#1 7143176#2 -246720356#2 -246720356#1 -246720356#0 -7142922 -7143014 -7143045 -7143051 -7142957#1 -7142957#0 -7142281#4 -7142281#3 -7142281#2"/>
    </vehicle>
    <vehicle id="54" depart="54.00">
        <route edges="-7142920 7142920 -48909326 7143224#0 7143224#1 7143224#2 7143233#0 7143233#1 500545383#0 500545383#1 500545383#2 36145560#0 36145560#1 7143234 36145562 128766406#0 128766406#1 128766406#2 128766406#3 128766406#4 -7143182 26235948 -26235949 -7143169 7143149#0 7143149#1 7143149#2 7143141#0 7143141#1 7143141#2 -7143115 -274445039 -7142979"/>
    </vehicle>
    <vehicle id="56" depart="56.00">
        <route edges="7142993#1 -7142993#1 -7142993#0 7143096#0 7143096#1 7143096#2 7143106 7143120 274545006#0 274545006#1 7143114 7143207 274971483 7143219#0 7143219#1 7143232 7143223#0 7143223#1 7143178#0 7143178#1 48909325 7143176#0 7143176#1 7143176#2 -246720356#2 -246720356#1 -246720356#0 -7142922 7142851 7143041 7143037 7142910 7142903 7142301#0 -7142301#0"/>
    </vehicle>
    <vehicle id="58" depart="58.00">
        <route edges="-7142627 -7142982#3 -7142982#2 -7142982#1 -7142982#0 -7143089 7143091#0 7143091#1 7143094 100715935 100715934 36145562 7143228 146451992#0 146451992#1 36145558#0 36145558#1 482983960#0 482983960#1 7143241 7143232 7143223#0 7143223#1 7143178#0 7143178#1 48909325 7143176#0 7143176#1 7143176#2 -246720356#2 -246720356#1 -246720356#0 -7142922 7142851 7143041 7143037 7142910 7142903 7142301#0 -7142369#2 7142383 7142301#4 -7142321 7142321"/>
    </vehicle>
    <vehicle id="60" depart="60.00">
        <route edges="7143072#1 -7143072#1 -7143072#0 7143094 100715935 100715934 36145562 128766406#0 128766406#1 128766406#2 128766406#3 128766406#4 -7143182 26235948 -7142859#1 -7142859#0 -7143053 7143015 7143040 -7143040"/>
    </vehicle>
    <vehicle id="63" depart="63.00">
        <route edges="7142798#1 -7142798#1 -7142798#0 7142567#1 7142567#2 7142608 -7143059#2 7143048 -7142915#3 -7142915#2 -7143065 7142777#0 7142561#0 7142561#1 -26436296#2 -26436296#1 -26436296#0"/>
    </vehicle>
    <vehicle id="70" depart="70.00">
        <route edges="-7143046 7143046 7143042 7143051 7143045 7143014 7142922 246720356#0 246720356#1 246720356#2 7143175 7143174#0 7143174#1 7143179 48909326 -7142920 -7143006#3 -7143006#2 -7143022 -7143011#0 7143011#0"/>
    </vehicle>
    <vehicle id="73" depart="73.00">
        <route edges="-7142915#1 7142915#1 7142915#2 7142915#3 7142676 7142578#0 7142578#1"/>
    </vehicle>
    <vehicle id="79" depart="79.00">
        <route edges="7143233#0 7143233#1 500545383#0 500545383#1 500545383#2 36145560#0 36145560#1 7143077#0 7143077#1 7143091#0 100661222#0 100661222#1 7142891#1 7142891#2 -7142970#4 -7142970#3 -7142970#2 -7142970#1 -7142970#0 7143033 7143006#0 -7143011#1 -7143011#0 -7142849#2 -7142916"/>
    </vehicle>
    <vehicle id="85" depart="85.00">
        <route edges="7142977#0 7142977#1 274544996#0 274544996#1 274545006#0 274545006#1 7143114 7143207 274971483 7143219#0 7143219#1 7143232 7143229 7143233#0 7143233#1 500545383#0 500545383#1 500545383#2 36145560#0 36145560#1 7143234 36145562 7143228 146451992#0 146451992#1 36145558#0"/>
    </vehicle>
    <vehicle id="86" depart="86.00">
        <route edges="7143066#0 7142916 -7142849#1 -7142849#0 7142865 7142905#0 7142905#1 7142905#2 7142832#0 7142832#1 7142832#2 7142987"/>
    </vehicle>
    <vehicle id="92" depart="92.00">
        <route edges="-7142676 -7142915#3 -7142915#2 -7143065 -7142818 -7142870#1"/>
    </vehicle>
    <vehicle id="93" depart="93.00">
        <route edges="7142371#0 -7142371#0 7142301#3 -7142383 7142369#2 -7142301#0 -7142903 -7142910 -7143037 -7143041 -7142851 7142922 246720356#0 246720356#1 246720356#2 7143175 7143174#0 7143174#1 7143179 7143224#0 7143224#1 7143224#2 -7143227 7143220#0 7143220#1 7143152 7143158 7143121#0 7143121#1 274545004 7143106 274544993#0 274544993#1 -7142977#1 -7142977#0 7142977#0"/>
    </vehicle>
    <vehicle id="94" depart="94.00">
        <route edges="-7142351#2 7142351#2 7142369#1 7142369#2 -7142301#0 -7142903 -7142910 -7143037 -7143041 -7142851 7142922 246720356#0 246720356#1 246720356#2 7143175 7143174#0 7143174#1 7143179 7143224#0 7143224#1 7143224#2 -7143227 7143220#0 7143220#1 7143152 7143158 7143121#0 7143121#1 274545004 7143100#0 7143100#1"/>
    </vehicle>
    <vehicle id="101" depart="101.00">
        <route edges="-7142289#0 -7142371#0 7142301#3 -7142383 7142369#2 -7142301#0 -7142903 -7142910 -7143037 -7143041 -7142851 7142922 246720356#0 246720356#1 246720356#2 7143175 7143174#0 7143174#1 7143179 48909326 -7142920 7142870#0 7142870#1 7142870#2 7142561#1"/>
    </vehicle>
    <vehicle id="109" depart="109.00">
        <route edges="7142811 -7142811 -7142622 -7142733 -7142851 7142922 246720356#0 246720356#1 246720356#2 7143175 7143174#0 7143174#1 7143179 48909326 -7142920 -7143006#3 -7143006#2 -7143022 -7142863 -7142907 7142905#0 7142905#1 7142905#2 7142832#0"/>
    </vehicle>
    <vehicle id="113" depart="113.00">
        <route edges="-7142881 7142957#1 7143051 7143045 7143014 7142922 246720356#0 246720356#1 246720356#2 7143175 7143174#0 7143174#1 7143179 7143224#0 7143224#1 7143224#2 -7143227 7143220#0 7143220#1 7143152 7143158 7143121#0 7143121#1 274545004 7143106 274544993#0 274544993#1 -7142977#1 7142977#1"/>
    </vehicle>
    <vehicle id="116" depart="116.00">
        <route edges="7142360#2 -7142360#2 -7142360#1 -7142360#0 7142281#4 7142957#0 7142957#1 7143051 7143045 7143014 7142922 246720356#0 246720356#1 246720356#2 7143175 7143174#0 7143174#1 7143179 7143224#0 7143224#1 7143224#2 -7143227 7143220#0 7143220#1 7143152 7143158 7143121#0 7143121#1 274545004 7143106 274544993#0 274544993#1 -7142977#1 7142917#0 7142917#1 -7142917#1"/>
    </vehicle>
    <vehicle id="117" depart="117.00">
        <route edges="-7142798#1 7142798#1 -7142657#0 7142970#4 7142886#0 7142886#1 7143094 100715935 100715934 36145562 128766406#0 128766406#1 128766406#2 128766406#3 128766406#4 -7143182 26235948 -26235949 -7143169 7143149#0 7143149#1 7143149#2 7143141#0 7143141#1 7143141#2 -7143115 -7143105 7142986 7143055 -7143055"/>
    </vehicle>
    <vehicle id="121" depart="121.00">
        <route edges="7142608 -7143059#2 -7143059#1 -7143059#0 -7142564 7143006#1 7143006#2 7143006#3 7142920 -48909326 -7142820 48909325 7143176#0 7143176#1 7143176#2 -246720356#2 -246720356#1 -246720356#0 -7142922 -7143014 -7143045 -7143051 -7142957#1 -7142957#0 -7142930 -7142612"/>
    </vehicle>
    <vehicle id="125" depart="125.00">
        <route edges="500545383#2 36145560#0 36145560#1 7143234 36145562 128766406#0 128766406#1 128766406#2 128766406#3 128766406#4 -7143182 26235948 -7142859#1 -7142859#0 -7143053 7143015 -7142857#1 307136435 -307136435"/>
    </vehicle>
    <vehicle id="127" depart="127.00">
        <route edges="482983961#0 482983961#1 7143223#0 7143223#1 7143178#0 7143178#1 48909325 7143176#0 7143176#1 7143176#2 -246720356#2 -246720356#1 -246720356#0 -7142922 7142851 7143041 7143037 7142910 7142903 7142301#0 -7142369#2 7142383"/>
    </vehicle>
    <vehicle id="131" depart="131.00">
        <route edges="-7142383 7142369#2 -7142301#0 -7142903 -7142910 -7143037 -7143041 -7142851 7142922 246720356#0 246720356#1 246720356#2 7143175 7143174#0 7143174#1 7143179 7143224#0 7143224#1 7143224#2 7143233#0 7143233#1 500545383#0 500545383#1 500545383#2 36145560#0 36145560#1 7143077#0 7143077#1 7143091#0 7143091#1"/>
    </vehicle>
    <vehicle id="134" depart="134.00">
        <route edges="7142627 -7142627 -7142982#3 -7142982#2 -7142982#1 -7142982#0 -7143089 7143091#0 7143091#1 7143094 100715935 100715934 36145562 7143228 146451992#0 146451992#1 36145558#0 36145558#1 482983960#0 482983960#1 7143241 7143232 7143223#0 7143223#1 7143178#0 7143178#1 48909325 7143176#0 7143176#1 7143176#2 -246720356#2 -246720356#1 -246720356#0 -7142922 7142851 7142733 -7142733"/>
    </vehicle>
    <vehicle id="135" depart="135.00">
        <route edges="-7142916 7143066#1 7143066#2 7142920 -48909326 7143224#0 7143224#1 7143224#2 -7143227 7143220#0 7143220#1 7143152 7143158 7143121#0 7143121#1 274544999#0 274544999#1 274544985 7142993#0 7142993#1 7142857#0"/>
    </vehicle>
    <vehicle id="137" depart="137.00">
        <route edges="7142987 -7142970#1 -7142970#0 7143033 7143006#0 7143006#1 7143006#2 7143006#3 7142920 -48909326 -7142820 48909325 7143176#0 7143176#1 7143176#2 7143175 7143174#0 7143174#1 7143179"/>
    </vehicle>
    <vehicle id="139" depart="139.00">
        <route edges="7142258 -26232604#0 -7142368 7142977#0 7142977#1 274544996#0 274544996#1 274545006#0 274545006#1 7143114 7143207 274971483 7143219#0 7143219#1 7143232 7143223#0 7143223#1 7143178#0 7143178#1 48909325 7143176#0 7143176#1 7143176#2 -246720356#2 -246720356#1 -246720356#0 -7142922 -7143014 -7143045 7143039 7142880 -7142880"/>
    </vehicle>
    <vehicle id="149" depart="149.00">
        <route edges="-7142870#2 -7142870#1 -7142870#0 7142920 -48909326 7143224#0 7143224#1 7143224#2 -7143227 7143220#0 7143220#1 7143152 7143158 7143121#0 7143121#1 274545004 7143106 274544993#0 274544993#1 -7142977#1 7142917#0 7142917#1 -7142243 7142243"/>
    </vehicle>
    <vehicle id="155" depart="155.00">
        <route edges="7142248#6 7142281#3 7142281#4 7142957#0 7142957#1 7143051 7143045 7143014 7142922 246720356#0 246720356#1 246720356#2 7143175 7143174#0 7143174#1 7143179 7143224#0 7143224#1 7143224#2 7143233#0 7143233#1"/>
    </vehicle>
    <vehicle id="156" depart="156.00">
        <route edges="-7142769#1 -7142769#0 -7143059#2 -7143059#1 -7143059#0 -7142564 7143006#1 7143006#2 7143006#3 7142920 -48909326 -7142820 48909325 7143176#0 7143176#1 7143176#2 -246720356#2 -246720356#1 -246720356#0 -7142922 7142851 7143041 7143037 7142910 7142903 7142301#0 -7142369#2 7142383 7142301#4 -7142321 7142321"/>
    </vehicle>
    <vehicle id="158" depart="158.00">
        <route edges="-7142360#0 7142281#4 7142957#0 7142957#1 7143051 7143045 7143014 7142922 246720356#0 246720356#1 246720356#2 7143175 7143174#0 7143174#1 7143179 48909326 -7142920 7142870#0 7142870#1 7142870#2 7142561#1 -26436296#2 -26436296#1 -26436296#0 26436295"/>
    </vehicle>
    <vehicle id="160" depart="160.00">
        <route edges="-26232604#1 -26232604#0 -7142368 7142977#0 7142977#1 274544996#0 274544996#1 274545006#0 274545006#1 7143114 7143207 274971483 7143219#0 7143219#1 7143232 7143223#0 7143223#1 7143178#0 7143178#1 48909325 7143176#0 7143176#1 7143176#2 -246720356#2 -246720356#1 -246720356#0 -7142922 7142851 7143041 7142620"/>
    </vehicle>
    <vehicle id="162" depart="162.00">
        <route edges="7142578#1 -7142578#1 -7142578#0 -7142676 -7142915#3 -7142915#2 -7142915#1 -7142915#0 -7143006#1 -7143006#0 -7143033 7142970#0 7142970#1 -7142987"/>
    </vehicle>
    <vehicle id="168" depart="168.00">
        <route edges="7142769#1 -7142769#1 -7142769#0 -7143059#2 -7143059#1 -7143059#0 7142866#3 7142866#4 7142970#1 7142970#2 7142970#3 7142970#4 7142886#0 7142886#1 7143094 7142982#0 7142982#1 -7142982#1"/>
    </vehicle>
    <vehicle id="171" depart="171.00">
        <route edges="-7142360#3 -7142360#2 -7142360#1 -7142360#0 7142281#4 7142957#0 7142957#1 7143051 7143045 7143014 7142922 246720356#0 246720356#1 246720356#2 7143175 7143174#0 7143174#1 7143179 48909326 -7142920 -7143006#3 -7143006#2 -7143006#1 -7143006#0 7142738#0 7142738#1 -7142738#1"/>
    </vehicle>
    <vehicle id="174" depart="174.00">
        <route edges="7143236 7143077#0 7143077#1 7143091#0 100661222#0 100661222#1 7142891#1 7142891#2 -7142970#4 -7142970#3 -7142970#2 -7142970#1"/>
    </vehicle>
    <vehicle id="178" depart="178.00">
        <route edges="84783423 -84783423 -7142585#0 84771611 -7142982#1 -7142982#0 -7143089 7143091#0 7143091#1 7143094 100715935 100715934 36145562 7143228 146451992#0 146451992#1 36145558#0 36145558#1 482983960#0 482983960#1 7143241 7143232 7143223#0 7143223#1 7143178#0 7143178#1 48909325 7143176#0 7143176#1 7143176#2 -246720356#2 -246720356#1 -246720356#0 -7142922 -7143014 -7143045 7143039 7142880 -7143003"/>
    </vehicle>
    <vehicle id="181" depart="181.00">
        <route edges="246720359#1 246720362#0 246720362#1 246720362#2 7143172#0 7143172#1 7143173#0 7143173#1 7143173#2 7143174#0 7143174#1 7143179 7143224#0 7143224#1 7143224#2 -7143227 7143241 7142436#0 7142436#1 7142436#2"/>
    </vehicle>
    <vehicle id="182" depart="182.00">
        <route edges="-7142585#1 -7142585#0 84771611 -7142982#1 -7142982#0 -7143089 7143091#0 7143091#1 7143094 100715935 100715934 36145562 128766406#0 128766406#1 128766406#2 128766406#3 128766406#4 -7143182 26235948 -26235949 -7143169 7143149#0 7143149#1 7143149#2 7143141#0 7143141#1 7143141#2 -7143115 -274445039 -7142979"/>
    </vehicle>
    <vehicle id="184" depart="184.00">
        <route edges="7142258 -26232604#0 -7142368 7142977#0 7142977#1 274544996#0 274544996#1 274545006#0 274545006#1 7143114 7143207 274971483 7143219#0 7143219#1 7143232 7143223#0 7143223#1 7143178#0 7143178#1 48909325 7143176#0 7143176#1 7143176#2 -246720356#2 -246720356#1 -246720356#0 -7142922 -7143014 -7143045 -7143051 -7143042 -7143046 26436293#2 26436293#3 -26436293#3"/>
    </vehicle>
    <vehicle id="185" depart="185.00">
        <route edges="-7142247 7142281#0 7142281#1 7142281#2 7142281#3 7142281#4 7142957#0 7142957#1 7143051 7143045 7143014 7142922 246720356#0 246720356#1 246720356#2 7143175 7143174#0 7143174#1 7143179 48909326 -7142920 -7143006#3 -7143006#2 -7143006#1 -7143006#0 7142738#0 7142738#1 7142738#2 7142738#3"/>
    </vehicle>
    <vehicle id="190" depart="190.00">
        <route edges="-7143045 7143045 7143014 7142922 246720356#0 246720356#1 246720356#2 7143175 7143174#0 7143174#1 7143179 48909326 -7142920 -7143006#3 -7143006#2 -7143006#1 7142564 7143059#0 7143059#1 7143059#2 7142769#0 7142769#1"/>
    </vehicle>
    <vehicle id="193" depart="193.00">
        <route edges="-7142360#0 7142281#4 7142957#0 7142957#1 7143051 7143045 7143014 7142922 246720356#0 246720356#1 246720356#2 7143175 7143174#0 7143174#1 7143179 7143224#0 7143224#1 7143224#2 -7143227 7143220#0 7143220#1 7143152 7143158 7143121#0 7143121#1 274544999#0 274544999#1 274544985 7142993#0 7142993#1 7142857#0 7142857#1"/>
    </vehicle>
    <vehicle id="200" depart="200.00">
        <route edges="-7142857#0 -7142993#1 -7142993#0 7143096#0 7143096#1 7143096#2 7143106 7143120 274545006#0 274545006#1 7143114 7143207 274971483 7143219#0 7143219#1 7143232 7143223#0 7143223#1 7143178#0 7143178#1 48909325 7143176#0 7143176#1 7143176#2 -246720356#2 -246720356#1 -246720356#0 -7142922 -7143014 -7143045 -7143051 -7142957#1 -7142957#0 -7142281#4 -7142281#3 -7142281#2 -7142281#1 -7142281#0 7142281#0"/>
    </vehicle>
    <vehicle id="201" depart="201.00">
        <route edges="7142258 -26232604#0 -7142368 7142977#0 7142977#1 274544996#0 274544996#1 274545006#0 274545006#1 7143114 7143207 274971483 7143219#0 7143219#1 7143232 7143223#0 7143223#1 7143178#0 7143178#1 7142820 48909326 -7142920 -7143006#3 -7143006#2 -7143006#1 7142564 7142866#3"/>
    </vehicle>
    <vehicle id="202" depart="202.00">
        <route edges="7142801#1 -7142801#1 -7142801#0 7142808 246720362#0 246720362#1 246720362#2 7143172#0 7143172#1 7143173#0 7143173#1 7143173#2 -7143175 7143126#0 7143126#1 7143126#2 246720354#0 246720354#1 246720354#2"/>
    </vehicle>
    <vehicle id="207" depart="207.00">
        <route edges="7142915#1 -7143065 -7142818 -7142870#1 -7142870#0 7142920 -48909326 -7142820 48909325 7143176#0 7143176#1 7143176#2 -246720356#2 -246720356#1 -246720356#0 -7142922 -7143014 -7143045 -7143051 -7142957#1 -7142957#0 -7142281#4 -7142281#3 7142281#3"/>
    </vehicle>
    <vehicle id="211" depart="211.00">
        <route edges="7142993#1 7142857#0 7142857#1 -7143015 7143053 7142859#0 7142859#1 -26235948 7143182 274544983#0 274544983#1 274544983#2 274544983#3 274544983#4 7143236 7143077#0 7143077#1 7143091#0 100661222#0 100661222#1 7142891#1 7142891#2 -7142970#4 -7142970#3 -7142970#2 7142567#0 7142567#1 7142738#2 7142738#3 -7142738#3"/>
    </vehicle>
    <vehicle id="214" depart="214.00">
        <route edges="7143065 -7142915#1 -7142915#0 -7143006#1 7142564 7142866#3"/>
    </vehicle>
    <vehicle id="217" depart="217.00">
        <route edges="-7142738#3 -7142738#2 -7142738#1 7142866#4 7142970#1 7142970#2 7142970#3 7142970#4 7142886#0 7142886#1 7143094 100715935 100715934 36145562 128766406#0 128766406#1 128766406#2 128766406#3 128766406#4 -7143182 26235948 -26235949 -7143169 7143149#0 7143149#1 7143149#2 7143140 274544997#0 274544997#1 -7143125 -7143119#1 -7142921#1 -7142921#0"/>
    </vehicle>
    <vehicle id="219" depart="219.00">
        <route edges="7142657#0 -7142798#1 -7142798#0 7142567#1 -7142738#1 -7142866#3 -7142564 -7143011#1 -7142863 7142863"/>
    </vehicle>
    <vehicle id="222" depart="222.00">
        <route edges="7142993#1 -7142993#1 -7142993#0 7143096#0 7143096#1 7143096#2 7143106 7143120 274545006#0 274545006#1 7143114 7143207 274971483 7143219#0 7143219#1 7143232 7143223#0 7143223#1 7143178#0 7143178#1 48909325 7143176#0 7143176#1 7143176#2 -246720356#2 -246720356#1 -246720356#0 -7142922 -7143014 7142961 -26436294#2 26436294#2"/>
    </vehicle>
    <vehicle id="223" depart="223.00">
        <route edges="-7142582#1 -7142582#0 7142608 -7143059#2 -7143059#1 -7143059#0 7142866#3 7142866#4 7142970#1 7142970#2 7142970#3 7142970#4 7142886#0 7142886#1 7143072#0 7143072#1"/>
    </vehicle>
    <vehicle id="225" depart="225.00">
        <route edges="-7143046 26436293#2 26436293#3 26436294#0"/>
    </vehicle>
    <vehicle id="233" depart="233.00">
        <route edges="7143066#1 7143066#2 7142920 -48909326 7143224#0 7143224#1 7143224#2 7143233#0 7143233#1 500545383#0 500545383#1 500545383#2 36145560#0 36145560#1 7143234 36145562 128766406#0 128766406#1 128766406#2 128766406#3 128766406#4 -7143182 26235948 -7142859#1 -7142859#0 -7143053"/>
    </vehicle>
    <vehicle id="235" depart="235.00">
        <route edges="-7143048 -7143059#1 -7143059#0 -7142564 7143006#1 7143006#2 7143006#3 7142920 -48909326 -7142820 48909325 7143176#0 7143176#1 7143176#2 7143126#0 7143126#1 7143126#2 246720354#0 246720354#1 246720354#2 246720350"/>
    </vehicle>
    <vehicle id="236" depart="236.00">
        <route edges="7142281#3 7142281#4 7142957#0 7142957#1 7143051 7143045 7143014 7142922 246720356#0 246720356#1 246720356#2 7143175 7143174#0 7143174#1 7143179 7143224#0 7143224#1 7143224#2 7143233#0 7143233#1 500545383#0 500545383#1 500545383#2 36145560#0 36145560#1 7143234 36145562 128766406#0 128766406#1 128766406#2 128766406#3 128766406#4 -7143182 26235948 -26235949 -7143169 7143149#0 7143149#1 7143149#2 7143141#0 7143141#1 26235957 26235958"/>
    </vehicle>
    <vehicle id="238" depart="238.00">
        <route edges="7143058 -7143058 -7143003 -7142281#4"/>
    </vehicle>
    <vehicle id="239" depart="239.00">
        <route edges="7143233#1 500545383#0 500545383#1 500545383#2 36145560#0 36145560#1 7143077#0 7143077#1 7143091#0 7143091#1 7143072#0 7143072#1"/>
    </vehicle>
    <vehicle id="240" depart="240.00">
        <route edges="-26232604#0 -7142368 7142977#0 7142977#1 274544996#0 274544996#1 274545006#0 274545006#1 7143114 7143207 274971483 7143219#0 7143219#1 7143232 7143223#0 7143223#1 7143178#0 7143178#1 48909325 7143176#0 7143176#1"/>
    </vehicle>
    <vehicle id="241" depart="241.00">
        <route edges="7142437 482983961#0 482983961#1 7143229 7143233#0 7143233#1 500545383#0 500545383#1 500545383#2 36145560#0 36145560#1"/>
    </vehicle>
    <vehicle id="242" depart="242.00">
        <route edges="-7142936#0 26436293#0 7142612 7142930 7142957#0 7142957#1 7143051 7143045 7143014 7142922 246720356#0 246720356#1 246720356#2 7143175 7143174#0 7143174#1 7143179 7143224#0 7143224#1 7143224#2 -7143227 7143220#0 7143220#1 7143152 7143158 7143121#0 7143121#1 274544999#0 274544999#1 274544985 7143119#0 -7142921#1 -7142921#0 7142921#0"/>
    </vehicle>
    <vehicle id="245" depart="245.00">
        <route edges="246720356#1 246720356#2 7143175 7143174#0 7143174#1 7143179 7143224#0 7143224#1 7143224#2 -7143227 7143220#0 7143220#1 7143152 7143158 7143121#0 7143121#1 274545004 7143106 274544993#0 274544993#1 -7142977#1 -7142977#0 7142368 26232604#0 -26232604#0"/>
    </vehicle>
    <vehicle id="251" depart="251.00">
        <route edges="-7142627 -7142982#3 -7142982#2 -7142982#1 -7142982#0 -7143089 7143091#0 7143091#1 7143094 100715935 100715934 36145562 7143228 146451992#0 146451992#1 36145558#0 36145558#1 482983960#0 482983960#1 7143227 7143233#0 7143233#1 500545383#0 500545383#1 500545383#2"/>
    </vehicle>
    <vehicle id="252" depart="252.00">
        <route edges="7143003 -7142880 -7143039 7143045 7143014 7142922 246720356#0 246720356#1 246720356#2 7143175 7143174#0 7143174#1 7143179 7143224#0 7143224#1 7143224#2 -7143227 7143241 7142436#0 7142436#1 7142436#2"/>
    </vehicle>
    <vehicle id="256" depart="256.00">
        <route edges="7142371#0 -7142371#0 7142301#3 -7142383 -7142369#1 -7142369#0 -7142360#0 -7142936#1 7142936#1"/>
    </vehicle>
    <vehicle id="258" depart="258.00">
        <route edges="7143158 7143121#0 7143121#1 274544999#0 274544999#1 274544985 7143119#0 7143119#1 7143125 274545002#0 274545002#1 274544987 7143149#2 7143141#0 7143141#1 26235957"/>
    </vehicle>
    <vehicle id="259" depart="259.00">
        <route edges="26232604#0 26232604#1 7142243 -7142243"/>
    </vehicle>
    <vehicle id="260" depart="260.00">
        <route edges="-7142993#1 -7142993#0 7143119#0 7143119#1 7143125 274545002#0 274545002#1 7143151#0 7143151#1 7143169 26235949 -26235948 7143182 274544983#0 274544983#1 274544983#2 274544983#3 274544983#4 7143236 7143077#0 7143077#1 7143089 7142982#0 7142982#1 7142982#2 7142982#3 7142627 -7142627"/>
    </vehicle>
    <vehicle id="262" depart="262.00">
        <route edges="7142307 7142243 -7142917#1 -7142917#0 7142977#1 274544996#0 274544996#1 274545006#0 274545006#1 7143114 7143207 274971483 7143219#0 7143219#1 7143232 7143223#0 7143223#1 7143178#0 7143178#1 7142820 48909326 -7142920 7142870#0 7142870#1 7142870#2 7142561#1 -26436296#2 -26436296#1 26436296#1"/>
    </vehicle>
    <vehicle id="266" depart="266.00">
        <route edges="-7143103 7143103 7143105 7143115 7143122#0 7143122#1 274544997#0 274544997#1 -7143125 -7143119#1 -7143119#0 7143096#0 7143096#1 7143096#2 7143106 274544993#0 274544993#1 -7142977#1 -7142977#0 7142368 26232604#0 -7142258"/>
    </vehicle>
    <vehicle id="268" depart="268.00">
        <route edges="7143103 7143105 7143115 7143122#0 7143122#1 274544997#0 274544997#1 -7143125 -7143119#1 -7143119#0 7143096#0 7143096#1 7143096#2 7143106 274544993#0 274544993#1 -7142977#1 -7142977#0"/>
    </vehicle>
    <vehicle id="272" depart="272.00">
        <route edges="-7142578#1 -7142578#0 -7142676 -7143048 7143059#2 -7143059#2"/>
    </vehicle>
    <vehicle id="273" depart="273.00">
        <route edges="7142769#1 -7142769#1 -7142769#0 -7143059#2 -7143059#1 -7143059#0 7142866#3 7142866#4 7142970#1 7142970#2 7142970#3 7142970#4 7142886#0 7142886#1 7143094 100715935 100715934 36145562 7143228 146451992#0 146451992#1 36145558#0"/>
    </vehicle>
    <vehicle id="277" depart="277.00">
        <route edges="-7142243 7142243 -7142917#1 -7142917#0 7142977#1 274544996#0 274544996#1 274545006#0 274545006#1 7143114 7143207 274971483 7143219#0 7143219#1 7143232 7143223#0 7143223#1 7143178#0 7143178#1 7142820 48909326 -7142920 -7143006#3 -7143006#2 -7143006#1 7142564 7142866#3"/>
    </vehicle>
    <vehicle id="279" depart="279.00">
        <route edges="274545002#0 274545002#1 274544987 7143149#2 7143140 274544997#0 274544997#1 -7143125 -7143119#1 -7143119#0 7142993#0 7142993#1 -26436332 26436332"/>
    </vehicle>
    <vehicle id="280" depart="280.00">
        <route edges="-100650612#0 -7142235 -7142369#3 -7142301#0 -7142903 -7142910 -7143037 -7143041 -7142851 7142922 246720356#0 246720356#1 246720356#2 7143175 7143174#0 7143174#1 7143179 -7142820 48909325"/>
    </vehicle>
    <vehicle id="281" depart="281.00">
        <route edges="-7142657#0 -7142970#3 -7142970#2 -7142970#1 -7142970#0 7143033 7143006#0 7143006#1 7143006#2 7143006#3 7142920 -48909326 -7142820 48909325 7143176#0 7143176#1 7143176#2 -246720356#2 -246720356#1 -246720356#0 -7142922 -7143014 -7143045 7143039 7142880"/>
    </vehicle>
    <vehicle id="282" depart="282.00">
        <route edges="7142223#1 7142281#2 7142281#3 7142281#4 7142957#0 -7142957#0"/>
    </vehicle>
    <vehicle id="283" depart="283.00">
        <route edges="7142281#2 7142281#3 7142281#4 7142957#0 7142957#1 7143051 7143045 7143014 7142922 246720356#0 246720356#1 246720356#2 7143175 7143174#0 7143174#1 7143179 48909326 -7142920 -7143006#3 -7143006#2 -7143006#1 -7143006#0 -7143033 7142970#0 7142970#1 7142970#2 7142970#3 7142657#0 -7142657#0"/>
    </vehicle>