<?xml version="1.0" encoding="UTF-8"?>

<!-- generated on Fri Sep 15 18:23:44 2017 by SUMO netconvert Version 0.30.0
<?xml version="1.0" encoding="UTF-8"?>

<configuration xmlns:xsi="http://www.w3.org/2001/XMLSchema-instance" xsi:noNamespaceSchemaLocation="http://sumo.dlr.de/xsd/netconvertConfiguration.xsd">

    <input>
        <osm-files value="map.osm"/>
    </input>

    <output>
        <output-file value="map.net.xml"/>
        <output.street-names value="true"/>
    </output>

    <projection>
        <proj.utm value="true"/>
    </projection>

    <processing>
        <lefthand value="true"/>
    </processing>

</configuration>
-->

<net version="0.27" lefthand="true" xmlns:xsi="http://www.w3.org/2001/XMLSchema-instance" xsi:noNamespaceSchemaLocation="http://sumo.dlr.de/xsd/net_file.xsd">

    <location netOffset="-684326.73,-5704833.36" convBoundary="0.00,-0.00,2516.19,2124.35" origBoundary="5.654201,51.464027,5.690368,51.483255" projParameter="+proj=utm +zone=31 +ellps=WGS84 +datum=WGS84 +units=m +no_defs"/>

    <type id="highway.bridleway" priority="1" numLanes="1" speed="2.78" allow="pedestrian" oneway="1" width="2.00"/>
    <type id="highway.bus_guideway" priority="1" numLanes="1" speed="8.33" allow="bus" oneway="1"/>
    <type id="highway.cycleway" priority="1" numLanes="1" speed="5.56" allow="bicycle" oneway="0" width="1.00"/>
    <type id="highway.footway" priority="1" numLanes="1" speed="2.78" allow="pedestrian" oneway="1" width="2.00"/>
    <type id="highway.ford" priority="1" numLanes="1" speed="2.78" allow="army" oneway="0"/>
    <type id="highway.living_street" priority="3" numLanes="1" speed="2.78" disallow="tram rail_urban rail rail_electric ship" oneway="0"/>
    <type id="highway.motorway" priority="13" numLanes="2" speed="44.44" allow="private emergency authority army vip passenger hov taxi bus coach delivery truck trailer motorcycle evehicle custom1 custom2" oneway="1"/>
    <type id="highway.motorway_link" priority="12" numLanes="1" speed="22.22" allow="private emergency authority army vip passenger hov taxi bus coach delivery truck trailer motorcycle evehicle custom1 custom2" oneway="1"/>
    <type id="highway.path" priority="1" numLanes="1" speed="2.78" allow="bicycle pedestrian" oneway="1" width="2.00"/>
    <type id="highway.pedestrian" priority="1" numLanes="1" speed="2.78" allow="pedestrian" oneway="1" width="2.00"/>
    <type id="highway.primary" priority="9" numLanes="2" speed="27.78" disallow="tram rail_urban rail rail_electric ship" oneway="0"/>
    <type id="highway.primary_link" priority="8" numLanes="1" speed="22.22" disallow="tram rail_urban rail rail_electric ship" oneway="0"/>
    <type id="highway.raceway" priority="14" numLanes="2" speed="83.33" allow="vip" oneway="0"/>
    <type id="highway.residential" priority="4" numLanes="1" speed="13.89" disallow="tram rail_urban rail rail_electric ship" oneway="0"/>
    <type id="highway.secondary" priority="7" numLanes="2" speed="27.78" disallow="tram rail_urban rail rail_electric ship" oneway="0"/>
    <type id="highway.secondary_link" priority="6" numLanes="1" speed="22.22" disallow="tram rail_urban rail rail_electric ship" oneway="0"/>
    <type id="highway.service" priority="2" numLanes="1" speed="5.56" allow="delivery bicycle pedestrian" oneway="0"/>
    <type id="highway.services" priority="1" numLanes="1" speed="8.33" disallow="tram rail_urban rail rail_electric ship" oneway="0"/>
    <type id="highway.stairs" priority="1" numLanes="1" speed="1.39" allow="pedestrian" oneway="1" width="2.00"/>
    <type id="highway.step" priority="1" numLanes="1" speed="1.39" allow="pedestrian" oneway="1" width="2.00"/>
    <type id="highway.steps" priority="1" numLanes="1" speed="1.39" allow="pedestrian" oneway="1" width="2.00"/>
    <type id="highway.tertiary" priority="6" numLanes="1" speed="22.22" disallow="tram rail_urban rail rail_electric ship" oneway="0"/>
    <type id="highway.tertiary_link" priority="5" numLanes="1" speed="22.22" disallow="tram rail_urban rail rail_electric ship" oneway="0"/>
    <type id="highway.track" priority="1" numLanes="1" speed="5.56" disallow="tram rail_urban rail rail_electric ship" oneway="0"/>
    <type id="highway.trunk" priority="11" numLanes="2" speed="27.78" disallow="tram rail_urban rail rail_electric bicycle pedestrian ship" oneway="0"/>
    <type id="highway.trunk_link" priority="10" numLanes="1" speed="22.22" disallow="tram rail_urban rail rail_electric bicycle pedestrian ship" oneway="0"/>
    <type id="highway.unclassified" priority="5" numLanes="1" speed="13.89" disallow="tram rail_urban rail rail_electric ship" oneway="0"/>
    <type id="highway.unsurfaced" priority="1" numLanes="1" speed="8.33" disallow="tram rail_urban rail rail_electric ship" oneway="0"/>
    <type id="railway.light_rail" priority="15" numLanes="1" speed="27.78" allow="rail_urban" oneway="1"/>
    <type id="railway.preserved" priority="15" numLanes="1" speed="27.78" allow="rail" oneway="1"/>
    <type id="railway.rail" priority="15" numLanes="1" speed="83.33" allow="rail rail_electric" oneway="1"/>
    <type id="railway.subway" priority="15" numLanes="1" speed="27.78" allow="rail_urban" oneway="1"/>
    <type id="railway.tram" priority="15" numLanes="1" speed="13.89" allow="tram" oneway="1"/>

    <edge id=":1030089826_0" function="internal">
        <lane id=":1030089826_0_0" index="0" allow="rail rail_electric" speed="36.11" length="3.04" shape="1253.50,1267.05 1250.53,1267.66"/>
    </edge>
    <edge id=":1030089826_1" function="internal">
        <lane id=":1030089826_1_0" index="0" allow="rail rail_electric" speed="59.72" length="23.12" shape="1253.50,1267.05 1243.93,1269.24 1240.78,1270.26 1244.05,1270.11 1250.70,1269.21"/>
    </edge>
    <edge id=":1030089826_4" function="internal">
        <lane id=":1030089826_4_0" index="0" speed="59.72" length="3.09" shape="1250.70,1269.21 1253.76,1268.79"/>
    </edge>
    <edge id=":1030089826_2" function="internal">
        <lane id=":1030089826_2_0" index="0" allow="rail rail_electric" speed="36.11" length="2.90" shape="1251.14,1270.90 1253.99,1270.32"/>
    </edge>
    <edge id=":1030089826_3" function="internal">
        <lane id=":1030089826_3_0" index="0" allow="rail rail_electric" speed="59.72" length="3.36" shape="1251.14,1270.90 1253.76,1268.79"/>
    </edge>
    <edge id=":1030089845_0" function="internal">
        <lane id=":1030089845_0_0" index="0" allow="rail rail_electric" speed="36.11" length="3.83" shape="1057.16,1298.65 1053.34,1298.90"/>
    </edge>
    <edge id=":1030089845_1" function="internal">
        <lane id=":1030089845_1_0" index="0" allow="bicycle" speed="5.56" length="4.98" width="1.00" shape="1056.47,1302.58 1055.37,1297.73"/>
    </edge>
    <edge id=":1030089845_2" function="internal">
        <lane id=":1030089845_2_0" index="0" allow="rail rail_electric" speed="36.11" length="3.93" shape="1053.52,1302.19 1057.44,1301.94"/>
    </edge>
    <edge id=":1030089953_0" function="internal">
        <lane id=":1030089953_0_0" index="0" allow="rail rail_electric" speed="59.72" length="3.51" shape="1392.53,1243.21 1391.56,1243.21 1390.91,1242.80 1390.24,1242.37 1389.27,1242.32"/>
    </edge>
    <edge id=":1030089953_1" function="internal">
        <lane id=":1030089953_1_0" index="0" allow="rail rail_electric" speed="59.72" length="2.15" shape="1392.53,1243.21 1390.46,1243.80"/>
    </edge>
    <edge id=":1030089953_4" function="internal">
        <lane id=":1030089953_4_0" index="0" speed="59.72" length="32.45" shape="1390.46,1243.80 1380.05,1246.74 1375.95,1248.20 1380.23,1247.58 1392.90,1244.90"/>
    </edge>
    <edge id=":1030089953_2" function="internal">
        <lane id=":1030089953_2_0" index="0" allow="rail rail_electric" speed="36.11" length="3.00" shape="1389.97,1245.54 1392.90,1244.90"/>
    </edge>
    <edge id=":1030089953_3" function="internal">
        <lane id=":1030089953_3_0" index="0" allow="rail rail_electric" speed="36.11" length="2.99" shape="1392.19,1241.68 1389.27,1242.32"/>
    </edge>
    <edge id=":1030090029_0" function="internal">
        <lane id=":1030090029_0_0" index="0" allow="rail rail_electric" speed="44.44" length="0.26" shape="1751.36,1157.15 1751.11,1157.22"/>
    </edge>
    <edge id=":1030090029_1" function="internal">
        <lane id=":1030090029_1_0" index="0" allow="rail rail_electric" speed="44.44" length="0.31" shape="1751.87,1160.43 1752.17,1160.35"/>
    </edge>
    <edge id=":1030090094_0" function="internal">
        <lane id=":1030090094_0_0" index="0" allow="rail rail_electric" speed="36.11" length="3.26" shape="1474.89,1219.06 1471.70,1219.76"/>
    </edge>
    <edge id=":1030090094_1" function="internal">
        <lane id=":1030090094_1_0" index="0" allow="rail rail_electric" speed="59.72" length="3.74" shape="1474.89,1219.06 1473.96,1219.53 1473.52,1220.21 1473.08,1220.92 1472.16,1221.44"/>
    </edge>
    <edge id=":1030090094_2" function="internal">
        <lane id=":1030090094_2_0" index="0" allow="rail rail_electric" speed="36.11" length="3.10" shape="1472.58,1222.94 1475.60,1222.28"/>
    </edge>
    <edge id=":1030090094_3" function="internal">
        <lane id=":1030090094_3_0" index="0" allow="rail rail_electric" speed="59.72" length="29.24" shape="1472.58,1222.94 1461.84,1225.17 1458.19,1225.66 1461.63,1224.42 1472.16,1221.44"/>
    </edge>
    <edge id=":1030090105_0" function="internal">
        <lane id=":1030090105_0_0" index="0" allow="rail rail_electric" speed="36.11" length="2.98" shape="1323.37,1256.76 1320.45,1257.39"/>
    </edge>
    <edge id=":1030090105_1" function="internal">
        <lane id=":1030090105_1_0" index="0" allow="rail rail_electric" speed="36.11" length="3.01" shape="1321.13,1260.62 1324.07,1259.99"/>
    </edge>
    <edge id=":1030090105_2" function="internal">
        <lane id=":1030090105_2_0" index="0" allow="rail rail_electric" speed="59.72" length="3.47" shape="1320.77,1258.91 1324.07,1259.99"/>
    </edge>
    <edge id=":1030090105_3" function="internal">
        <lane id=":1030090105_3_0" index="0" allow="rail rail_electric" speed="59.72" length="26.02" shape="1320.77,1258.91 1311.11,1260.24 1307.84,1260.43 1310.95,1259.48 1320.45,1257.39"/>
    </edge>
    <edge id=":1030090263_0" function="internal">
        <lane id=":1030090263_0_0" index="0" allow="rail rail_electric" speed="44.44" length="4.82" shape="2516.58,970.04 2517.59,968.94 2517.79,968.04 2517.20,967.34 2515.80,966.83"/>
    </edge>
    <edge id=":1030090713_0" function="internal">
        <lane id=":1030090713_0_0" index="0" allow="rail rail_electric" speed="83.33" length="3.67" shape="1056.31,1295.89 1055.23,1296.00 1054.49,1296.03 1053.74,1296.02 1052.65,1296.00"/>
    </edge>
    <edge id=":1030090713_1" function="internal">
        <lane id=":1030090713_1_0" index="0" allow="bicycle" speed="5.56" length="4.77" width="1.00" shape="1055.33,1297.53 1054.38,1292.85"/>
    </edge>
    <edge id=":1030090722_0" function="internal">
        <lane id=":1030090722_0_0" index="0" allow="rail rail_electric" speed="36.11" length="4.82" shape="2.51,1005.14 1.04,1005.40 0.34,1006.00 0.39,1006.92 1.20,1008.17"/>
    </edge>
    <edge id=":1030090730_0" function="internal">
        <lane id=":1030090730_0_0" index="0" allow="rail rail_electric" speed="40.28" length="0.26" shape="1705.21,1168.10 1704.95,1168.15"/>
    </edge>
    <edge id=":1030090730_1" function="internal">
        <lane id=":1030090730_1_0" index="0" allow="rail rail_electric" speed="40.28" length="0.31" shape="1705.67,1171.38 1705.97,1171.31"/>
    </edge>
    <edge id=":1030090766_0" function="internal">
        <lane id=":1030090766_0_0" index="0" allow="rail rail_electric" speed="36.11" length="5.59" shape="1076.22,1296.99 1070.66,1297.56"/>
    </edge>
    <edge id=":1030090766_1" function="internal">
        <lane id=":1030090766_1_0" index="0" allow="bicycle" speed="5.56" length="5.44" width="1.00" shape="1074.52,1300.97 1073.30,1295.67"/>
    </edge>
    <edge id=":1030090766_2" function="internal">
        <lane id=":1030090766_2_0" index="0" allow="rail rail_electric" speed="36.11" length="5.64" shape="1070.97,1300.84 1076.58,1300.27"/>
    </edge>
    <edge id=":1030090766_3" function="internal">
        <lane id=":1030090766_3_0" index="0" allow="bicycle" speed="5.56" length="5.24" width="1.00" shape="1072.23,1295.91 1073.40,1301.02"/>
    </edge>
    <edge id=":1033447374_0" function="internal">
        <lane id=":1033447374_0_0" index="0" allow="bicycle" speed="5.56" length="1.61" width="1.00" shape="727.35,1553.04 727.04,1553.43 727.00,1553.73 727.21,1553.95 727.69,1554.08"/>
    </edge>
    <edge id=":1126886282_0" function="internal">
        <lane id=":1126886282_0_0" index="0" allow="bicycle" speed="5.56" length="5.04" width="1.00" shape="1058.94,1315.66 1058.08,1310.70"/>
    </edge>
    <edge id=":1163553623_0" function="internal">
        <lane id=":1163553623_0_0" index="0" disallow="tram rail_urban rail rail_electric ship" speed="8.33" length="5.14" shape="1977.48,1610.08 1977.23,1615.21"/>
    </edge>
    <edge id=":1163553623_1" function="internal">
        <lane id=":1163553623_1_0" index="0" disallow="tram rail_urban rail rail_electric ship" speed="8.33" length="2.41" shape="1977.48,1610.08 1978.24,1611.35 1979.05,1611.81"/>
    </edge>
    <edge id=":1163553623_4" function="internal">
        <lane id=":1163553623_4_0" index="0" speed="8.33" length="2.41" shape="1979.05,1611.81 1979.89,1611.43 1980.77,1610.24"/>
    </edge>
    <edge id=":1163553623_2" function="internal">
        <lane id=":1163553623_2_0" index="0" disallow="tram rail_urban rail rail_electric ship" speed="8.33" length="5.14" shape="1980.53,1615.37 1980.77,1610.24"/>
    </edge>
    <edge id=":1163553623_3" function="internal">
        <lane id=":1163553623_3_0" index="0" disallow="tram rail_urban rail rail_electric ship" speed="8.33" length="2.41" shape="1980.53,1615.37 1979.76,1614.09 1978.96,1613.64"/>
    </edge>
    <edge id=":1163553623_5" function="internal">
        <lane id=":1163553623_5_0" index="0" speed="8.33" length="2.41" shape="1978.96,1613.64 1978.11,1614.01 1977.23,1615.21"/>
    </edge>
    <edge id=":1163701752_0" function="internal">
        <lane id=":1163701752_0_0" index="0" disallow="tram rail_urban rail rail_electric ship" speed="13.89" length="6.78" shape="1103.48,1404.72 1106.11,1410.97"/>
    </edge>
    <edge id=":1163701752_1" function="internal">
        <lane id=":1163701752_1_0" index="0" disallow="tram rail_urban rail rail_electric ship" speed="13.89" length="5.56" shape="1103.48,1404.72 1104.09,1405.75 1105.06,1406.55 1106.36,1407.12 1108.01,1407.47"/>
    </edge>
    <edge id=":1163701755_0" function="internal">
        <lane id=":1163701755_0_0" index="0" disallow="tram rail_urban rail rail_electric ship" speed="13.89" length="6.10" shape="1116.55,1408.38 1118.46,1408.70 1119.97,1409.24 1121.07,1410.01 1121.77,1411.00"/>
    </edge>
    <edge id=":1163701755_1" function="internal">
        <lane id=":1163701755_1_0" index="0" disallow="tram rail_urban rail rail_electric ship" speed="13.89" length="6.67" shape="1119.05,1404.91 1121.77,1411.00"/>
    </edge>
    <edge id=":1189317792_0" function="internal">
        <lane id=":1189317792_0_0" index="0" allow="bicycle" speed="5.56" length="4.34" width="1.00" shape="1764.66,1601.45 1765.69,1601.71 1766.53,1602.25 1767.17,1603.10 1767.62,1604.23"/>
    </edge>
    <edge id=":1189317792_1" function="internal">
        <lane id=":1189317792_1_0" index="0" allow="bicycle" speed="5.56" length="4.88" width="1.00" shape="1764.66,1601.45 1766.09,1601.62 1767.06,1601.84 1767.98,1602.24 1769.26,1602.90"/>
    </edge>
    <edge id=":1189317792_2" function="internal">
        <lane id=":1189317792_2_0" index="0" allow="bicycle" speed="5.56" length="4.91" width="1.00" shape="1766.21,1599.52 1767.62,1604.23"/>
    </edge>
    <edge id=":1189317792_3" function="internal">
        <lane id=":1189317792_3_0" index="0" allow="bicycle" speed="5.56" length="4.75" width="1.00" shape="1766.21,1599.52 1766.70,1600.81 1767.25,1601.63 1768.03,1602.23 1769.26,1602.90"/>
    </edge>
    <edge id=":1189317793_0" function="internal">
        <lane id=":1189317793_0_0" index="0" allow="bicycle" speed="5.56" length="3.02" width="1.00" shape="1743.29,1601.20 1744.00,1600.65 1744.54,1600.33 1745.14,1600.18 1746.02,1600.14"/>
    </edge>
    <edge id=":1189317793_1" function="internal">
        <lane id=":1189317793_1_0" index="0" allow="bicycle" speed="5.56" length="3.51" width="1.00" shape="1743.29,1601.20 1743.89,1600.60 1744.33,1599.89 1744.61,1599.07 1744.73,1598.12"/>
    </edge>
    <edge id=":1189317808_0" function="internal">
        <lane id=":1189317808_0_0" index="0" disallow="tram rail_urban rail rail_electric ship" speed="13.89" length="8.74" shape="1788.28,1614.54 1790.85,1614.93 1792.61,1615.35 1794.36,1615.59 1796.92,1615.46"/>
    </edge>
    <edge id=":1189317808_1" function="internal">
        <lane id=":1189317808_1_0" index="0" disallow="tram rail_urban rail rail_electric ship" speed="9.72" length="9.13" shape="1788.70,1612.08 1791.12,1613.35 1792.72,1614.57 1794.36,1615.38 1796.92,1615.46"/>
    </edge>
    <edge id=":1399798110_0" function="internal">
        <lane id=":1399798110_0_0" index="0" disallow="tram rail_urban rail rail_electric ship" speed="13.89" length="4.21" shape="1725.04,1139.38 1725.72,1144.11"/>
        <lane id=":1399798110_0_1" index="1" disallow="tram rail_urban rail rail_electric ship" speed="13.89" length="4.21" shape="1728.31,1138.92 1728.82,1142.52"/>
    </edge>
    <edge id=":1399798110_2" function="internal">
        <lane id=":1399798110_2_0" index="0" disallow="tram rail_urban rail rail_electric ship" speed="13.89" length="4.35" shape="1728.31,1138.92 1726.43,1143.75"/>
        <lane id=":1399798110_2_1" index="1" disallow="tram rail_urban rail rail_electric ship" speed="13.89" length="4.35" shape="1728.31,1138.92 1728.47,1139.95 1728.63,1140.64 1728.90,1141.31 1729.37,1142.24"/>
    </edge>
    <edge id=":1399798114_0" function="internal">
        <lane id=":1399798114_0_0" index="0" disallow="tram rail_urban rail rail_electric ship" speed="19.44" length="9.26" shape="1740.57,1185.40 1749.66,1183.16"/>
        <lane id=":1399798114_0_1" index="1" disallow="tram rail_urban rail rail_electric ship" speed="19.44" length="9.26" shape="1739.82,1182.19 1748.71,1180.00"/>
    </edge>
    <edge id=":1399798114_2" function="internal">
        <lane id=":1399798114_2_0" index="0" disallow="tram rail_urban rail rail_electric ship" speed="16.67" length="9.39" shape="1740.80,1178.03 1742.31,1181.03 1744.28,1182.88 1746.73,1183.59 1749.66,1183.16"/>
        <lane id=":1399798114_2_1" index="1" disallow="tram rail_urban rail rail_electric ship" speed="16.67" length="9.39" shape="1742.90,1175.73 1748.71,1180.00"/>
    </edge>
    <edge id=":1422113677_0" function="internal">
        <lane id=":1422113677_0_0" index="0" allow="delivery bicycle pedestrian" speed="6.95" length="4.11" shape="943.26,1456.97 941.95,1457.49 940.91,1457.61 940.15,1457.33 939.65,1456.64"/>
    </edge>
    <edge id=":1422113677_1" function="internal">
        <lane id=":1422113677_1_0" index="0" disallow="tram rail_urban rail rail_electric ship" speed="8.33" length="9.53" shape="943.26,1456.97 934.73,1461.21"/>
    </edge>
    <edge id=":1422113677_2" function="internal">
        <lane id=":1422113677_2_0" index="0" disallow="tram rail_urban rail rail_electric ship" speed="8.33" length="2.41" shape="943.26,1456.97 942.52,1458.26 942.52,1459.18"/>
    </edge>
    <edge id=":1422113677_9" function="internal">
        <lane id=":1422113677_9_0" index="0" speed="8.33" length="2.41" shape="942.52,1459.18 943.26,1459.73 944.74,1459.91"/>
    </edge>
    <edge id=":1422113677_3" function="internal">
        <lane id=":1422113677_3_0" index="0" disallow="tram rail_urban rail rail_electric ship" speed="8.33" length="9.55" shape="936.19,1464.17 944.74,1459.91"/>
    </edge>
    <edge id=":1422113677_4" function="internal">
        <lane id=":1422113677_4_0" index="0" allow="delivery bicycle pedestrian" speed="6.95" length="5.42" shape="936.19,1464.17 938.45,1462.69 939.78,1460.94 939.88,1460.43"/>
    </edge>
    <edge id=":1422113677_5" function="internal">
        <lane id=":1422113677_5_0" index="0" disallow="tram rail_urban rail rail_electric ship" speed="8.33" length="2.41" shape="936.19,1464.17 936.93,1462.89 936.94,1461.96"/>
    </edge>
    <edge id=":1422113677_10" function="internal">
        <lane id=":1422113677_10_0" index="0" speed="6.95" length="3.88" shape="939.88,1460.43 940.18,1458.93 939.65,1456.64"/>
    </edge>
    <edge id=":1422113677_11" function="internal">
        <lane id=":1422113677_11_0" index="0" speed="8.33" length="2.41" shape="936.94,1461.96 936.20,1461.41 934.73,1461.21"/>
    </edge>
    <edge id=":1422113677_6" function="internal">
        <lane id=":1422113677_6_0" index="0" disallow="tram rail_urban rail rail_electric ship" speed="6.95" length="4.24" shape="936.60,1457.90 936.79,1458.85 936.54,1459.72 935.85,1460.51 934.73,1461.21"/>
    </edge>
    <edge id=":1422113677_7" function="internal">
        <lane id=":1422113677_7_0" index="0" disallow="tram rail_urban rail rail_electric ship" speed="6.95" length="9.69" shape="936.60,1457.90 937.89,1459.92 939.68,1460.93 941.96,1460.93 944.74,1459.91"/>
    </edge>
    <edge id=":1422113677_8" function="internal">
        <lane id=":1422113677_8_0" index="0" allow="delivery bicycle pedestrian" speed="5.56" length="4.82" shape="936.60,1457.90 937.83,1458.73 938.75,1458.80 939.36,1458.10 939.65,1456.64"/>
    </edge>
    <edge id=":1422113679_0" function="internal">
        <lane id=":1422113679_0_0" index="0" allow="bicycle" speed="5.56" length="3.27" width="1.00" shape="1056.14,1344.16 1055.95,1343.28 1056.08,1342.54 1056.52,1341.95 1057.28,1341.50"/>
    </edge>
    <edge id=":1422113679_1" function="internal">
        <lane id=":1422113679_1_0" index="0" allow="bicycle" speed="5.56" length="2.76" width="1.00" shape="1054.73,1342.55 1057.28,1341.50"/>
    </edge>
    <edge id=":1422113684_0" function="internal">
        <lane id=":1422113684_0_0" index="0" disallow="tram rail_urban rail rail_electric ship" speed="9.72" length="4.78" shape="1073.26,1336.97 1074.66,1336.82 1075.82,1337.02 1076.73,1337.58 1077.40,1338.49"/>
    </edge>
    <edge id=":1422113684_1" function="internal">
        <lane id=":1422113684_1_0" index="0" allow="bicycle" speed="5.56" length="6.40" width="1.00" shape="1073.26,1336.97 1079.52,1335.63"/>
    </edge>
    <edge id=":1422113684_2" function="internal">
        <lane id=":1422113684_2_0" index="0" disallow="tram rail_urban rail rail_electric ship" speed="13.89" length="4.47" shape="1075.82,1334.32 1076.15,1335.61 1076.43,1336.47 1076.80,1337.30 1077.40,1338.49"/>
    </edge>
    <edge id=":1422113684_3" function="internal">
        <lane id=":1422113684_3_0" index="0" allow="bicycle" speed="9.72" length="4.38" width="1.00" shape="1075.82,1334.32 1076.23,1335.15 1076.99,1335.64 1078.08,1335.80 1079.52,1335.63"/>
    </edge>
    <edge id=":1422113689_0" function="internal">
        <lane id=":1422113689_0_0" index="0" disallow="tram rail_urban rail rail_electric ship" speed="13.89" length="6.33" shape="1077.57,1348.56 1079.47,1348.40 1080.97,1348.73 1082.08,1349.56 1082.79,1350.88"/>
    </edge>
    <edge id=":1422113689_1" function="internal">
        <lane id=":1422113689_1_0" index="0" disallow="tram rail_urban rail rail_electric ship" speed="13.89" length="7.58" shape="1077.57,1348.56 1085.01,1347.10"/>
        <lane id=":1422113689_1_1" index="1" disallow="tram rail_urban rail rail_electric ship" speed="13.89" length="7.58" shape="1076.94,1345.32 1084.37,1343.86"/>
    </edge>
    <edge id=":1422113689_3" function="internal">
        <lane id=":1422113689_3_0" index="0" disallow="tram rail_urban rail rail_electric ship" speed="13.89" length="10.28" shape="1078.86,1341.40 1080.20,1344.10 1081.08,1346.04 1081.83,1348.03 1082.79,1350.88"/>
    </edge>
    <edge id=":1422113689_4" function="internal">
        <lane id=":1422113689_4_0" index="0" disallow="tram rail_urban rail rail_electric ship" speed="13.89" length="6.54" shape="1078.86,1341.40 1079.81,1342.77 1081.04,1343.63 1082.56,1343.99 1084.37,1343.86"/>
    </edge>
    <edge id=":1422113693_0" function="internal">
        <lane id=":1422113693_0_0" index="0" allow="delivery bicycle pedestrian" speed="5.56" length="4.29" shape="941.45,1453.12 940.18,1453.61 939.13,1453.69 938.29,1453.36 937.67,1452.61"/>
    </edge>
    <edge id=":1422113693_1" function="internal">
        <lane id=":1422113693_1_0" index="0" allow="bicycle" speed="5.56" length="9.54" width="1.00" shape="941.45,1453.12 932.92,1457.37"/>
    </edge>
    <edge id=":1422113693_2" function="internal">
        <lane id=":1422113693_2_0" index="0" allow="delivery bicycle pedestrian" speed="5.56" length="7.12" shape="941.45,1453.12 939.03,1454.48 937.40,1455.71 936.56,1456.79 936.52,1457.72"/>
    </edge>
    <edge id=":1422113693_3" function="internal">
        <lane id=":1422113693_3_0" index="0" allow="bicycle" speed="5.56" length="1.61" width="1.00" shape="941.45,1453.12 941.21,1453.55 941.21,1453.86 941.46,1454.04 941.95,1454.10"/>
    </edge>
    <edge id=":1422113693_4" function="internal">
        <lane id=":1422113693_4_0" index="0" allow="bicycle" speed="5.56" length="3.57" width="1.00" shape="939.57,1456.46 939.57,1455.96 939.97,1455.39 940.76,1454.77 941.95,1454.10"/>
    </edge>
    <edge id=":1422113693_5" function="internal">
        <lane id=":1422113693_5_0" index="0" allow="delivery bicycle pedestrian" speed="5.56" length="4.30" shape="939.57,1456.46 939.07,1455.29 938.69,1454.50 938.28,1453.73 937.67,1452.61"/>
    </edge>
    <edge id=":1422113693_6" function="internal">
        <lane id=":1422113693_6_0" index="0" allow="bicycle" speed="5.56" length="2.43" width="1.00" shape="939.57,1456.46 938.85,1455.79 937.51,1455.72 937.40,1455.75"/>
    </edge>
    <edge id=":1422113693_7" function="internal">
        <lane id=":1422113693_7_0" index="0" allow="delivery bicycle pedestrian" speed="5.56" length="2.41" shape="939.57,1456.46 938.33,1455.63 937.41,1455.56"/>
    </edge>
    <edge id=":1422113693_16" function="internal">
        <lane id=":1422113693_16_0" index="0" speed="5.56" length="4.78" width="1.00" shape="937.40,1455.75 935.53,1456.25 932.92,1457.37"/>
    </edge>
    <edge id=":1422113693_17" function="internal">
        <lane id=":1422113693_17_0" index="0" speed="5.56" length="2.41" shape="937.41,1455.56 936.81,1456.26 936.52,1457.72"/>
    </edge>
    <edge id=":1422113693_8" function="internal">
        <lane id=":1422113693_8_0" index="0" allow="delivery bicycle pedestrian" speed="5.56" length="3.43" shape="933.40,1458.36 934.21,1457.95 935.15,1457.53 936.00,1457.37 936.52,1457.72"/>
    </edge>
    <edge id=":1422113693_9" function="internal">
        <lane id=":1422113693_9_0" index="0" allow="bicycle" speed="5.56" length="9.56" width="1.00" shape="933.40,1458.36 941.95,1454.10"/>
    </edge>
    <edge id=":1422113693_10" function="internal">
        <lane id=":1422113693_10_0" index="0" allow="delivery bicycle pedestrian" speed="5.56" length="7.99" shape="933.40,1458.36 935.86,1456.94 937.39,1455.50 937.99,1454.06 937.67,1452.61"/>
    </edge>
    <edge id=":1422113693_11" function="internal">
        <lane id=":1422113693_11_0" index="0" allow="bicycle" speed="5.56" length="1.61" width="1.00" shape="933.40,1458.36 933.65,1457.93 933.65,1457.63 933.41,1457.44 932.92,1457.37"/>
    </edge>
    <edge id=":1422113693_12" function="internal">
        <lane id=":1422113693_12_0" index="0" allow="bicycle" speed="5.56" length="4.19" width="1.00" shape="934.77,1454.18 935.02,1455.06 934.79,1455.88 934.09,1456.66 932.92,1457.37"/>
    </edge>
    <edge id=":1422113693_13" function="internal">
        <lane id=":1422113693_13_0" index="0" allow="delivery bicycle pedestrian" speed="5.56" length="3.96" shape="934.77,1454.18 935.33,1455.21 935.71,1455.92 936.06,1456.64 936.52,1457.72"/>
    </edge>
    <edge id=":1422113693_14" function="internal">
        <lane id=":1422113693_14_0" index="0" allow="bicycle" speed="5.56" length="3.14" width="1.00" shape="934.77,1454.18 935.78,1455.23 937.32,1455.56 937.42,1455.54"/>
    </edge>
    <edge id=":1422113693_15" function="internal">
        <lane id=":1422113693_15_0" index="0" allow="delivery bicycle pedestrian" speed="5.56" length="2.41" shape="934.77,1454.18 936.08,1454.87 937.00,1454.84"/>
    </edge>
    <edge id=":1422113693_18" function="internal">
        <lane id=":1422113693_18_0" index="0" speed="5.56" length="4.79" width="1.00" shape="937.42,1455.54 939.38,1455.19 941.95,1454.10"/>
    </edge>
    <edge id=":1422113693_19" function="internal">
        <lane id=":1422113693_19_0" index="0" speed="5.56" length="2.41" shape="937.00,1454.84 937.53,1454.09 937.67,1452.61"/>
    </edge>
    <edge id=":1422113706_0" function="internal">
        <lane id=":1422113706_0_0" index="0" allow="rail rail_electric" speed="83.33" length="5.70" shape="1062.18,1295.23 1056.51,1295.87"/>
    </edge>
    <edge id=":1422113706_1" function="internal">
        <lane id=":1422113706_1_0" index="0" disallow="tram rail_urban rail rail_electric ship" speed="13.89" length="4.85" shape="1059.26,1297.16 1058.24,1292.41"/>
    </edge>
    <edge id=":1422113707_0" function="internal">
        <lane id=":1422113707_0_0" index="0" allow="bicycle" speed="5.56" length="4.03" width="1.00" shape="1107.82,1375.23 1103.81,1375.59"/>
    </edge>
    <edge id=":1422113707_1" function="internal">
        <lane id=":1422113707_1_0" index="0" allow="bicycle" speed="5.56" length="1.61" width="1.00" shape="1107.82,1375.23 1107.44,1375.54 1107.32,1375.83 1107.49,1376.09 1107.92,1376.33"/>
    </edge>
    <edge id=":1422113707_2" function="internal">