<?xml version="1.0" encoding="UTF-8"?>

<!-- generated on Fri Sep 15 18:24:23 2017 by SUMO polyconvert Version 0.30.0
<?xml version="1.0" encoding="UTF-8"?>

<configuration xmlns:xsi="http://www.w3.org/2001/XMLSchema-instance" xsi:noNamespaceSchemaLocation="http://sumo.dlr.de/xsd/polyconvertConfiguration.xsd">

    <input>
        <net-file value="map.net.xml"/>
        <osm-files value="map.osm"/>
        <type-file value="typemap.xml"/>
    </input>

    <output>
        <output-file value="map.poly.xml"/>
    </output>

    <processing>
        <poi-layer-offset value="5"/>
    </processing>

</configuration>
-->

<additional xmlns:xsi="http://www.w3.org/2001/XMLSchema-instance" xsi:noNamespaceSchemaLocation="http://sumo.dlr.de/xsd/additional_file.xsd">
    <location netOffset="-684326.73,-5704833.36" convBoundary="0.00,-1213.35,2830.02,2124.35" origBoundary="5.654201,51.452801,5.694134,51.483255" projParameter="+proj=utm +zone=31 +ellps=WGS84 +datum=WGS84 +units=m +no_defs"/>

    <poly id="102998085" type="building" color="255,230,230" fill="0" layer="-1.00" shape="1511.43,1541.13 1512.78,1530.78 1512.24,1530.71 1512.11,1531.53 1504.08,1530.44 1504.15,1529.89 1499.28,1529.24 1499.21,1529.80 1491.16,1528.73 1491.49,1526.26 1488.12,1525.81 1487.43,1530.96 1485.25,1530.67 1485.27,1530.47 1484.89,1530.55 1483.95,1537.41 1489.18,1538.12 1488.89,1540.17 1488.11,1540.06 1487.03,1548.04 1508.72,1551.01 1509.78,1543.05 1508.18,1542.81 1508.45,1540.77 1511.42,1541.18"/>
    <poly id="126848667" type="landuse" color="194,194,130" fill="1" layer="-3.00" shape="2333.41,1070.39 2331.35,1070.06 2300.31,1077.70 2300.70,1078.77 2308.55,1076.91 2308.95,1078.80 2243.16,1094.50 2251.94,1132.72 2318.58,1117.13 2309.96,1081.73 2315.77,1075.62 2330.32,1071.71 2332.28,1079.51 2335.04,1078.75 2335.38,1077.07 2333.41,1070.39"/>
    <poly id="128766403" type="parking" color="184,184,179" fill="1" layer="-1.00" shape="929.18,1452.98 934.69,1450.56 952.49,1442.66 943.78,1420.52 933.05,1418.16 921.95,1395.43 892.50,1395.11 894.27,1402.80 907.32,1402.89 918.27,1429.88 929.18,1452.98"/>
    <poly id="133791930" type="landuse" color="194,194,130" fill="1" layer="-3.00" shape="1416.13,729.53 1403.11,633.62 1339.48,643.80 1344.35,745.20 1350.09,756.77 1388.86,789.81 1391.63,794.74 1399.85,896.88 1433.62,888.41 1440.34,878.68 1439.58,878.29 1439.15,877.37 1435.84,842.86 1435.33,833.47 1433.63,820.28 1430.47,782.59 1392.65,786.16 1377.66,774.20 1375.44,760.09 1378.22,754.80 1410.35,750.51 1415.16,745.87 1417.17,739.96 1416.13,729.53"/>
    <poly id="171935336" type="parking" color="184,184,179" fill="1" layer="-1.00" shape="976.56,1483.16 932.12,1505.17 918.40,1477.32 965.88,1453.95 976.56,1483.16"/>
    <poly id="26992023" type="industrial" color="209,209,204" fill="1" layer="-3.00" shape="1052.79,1184.06 1031.56,1194.42 1041.79,1294.99 881.69,1300.29 791.43,1297.00 784.89,1285.63 800.40,1241.66 805.17,1119.40 805.00,1094.67 767.95,900.86 745.48,649.59 1037.55,605.45 1269.81,585.23 1406.91,563.71 1405.10,555.98 1677.36,511.20 1669.59,500.78 1662.91,464.76 1654.99,463.44 1326.54,512.86 1102.38,543.04 982.36,555.84 845.94,564.19 708.27,525.77 578.35,465.38 559.94,397.91 540.73,352.68 534.59,330.19 644.99,193.94 673.01,157.09 717.11,91.90 782.44,16.34 817.17,17.61 1166.35,-403.87 1214.97,-402.09 1306.88,-443.27 1420.45,-505.93 1485.84,-392.20 1536.09,-434.90 1615.78,-331.79 1851.08,-490.18 2115.02,-480.51 2112.98,-424.91 2177.53,-478.21 2205.72,-488.31 2220.43,-510.04 2200.82,-544.16 2196.73,-622.25 2199.58,-700.08 2291.09,-919.39 2445.13,-1136.40 2482.31,-1201.84 2774.89,-1213.35 2807.97,-789.06 2830.02,-443.11 2822.24,-231.86 2774.83,111.54 2752.77,144.13 2710.69,153.71 2596.30,238.58 2646.17,324.98 2655.13,340.94 2650.32,350.15 2641.12,371.64 2617.54,417.49 2372.04,664.54 2354.47,764.10 2427.70,1008.15 2288.71,1040.02 1748.35,1176.08 1742.33,1177.42 1446.94,1242.99 1278.27,1292.49 1095.31,1352.61 1052.79,1184.06"/>
    <poly id="286576584" type="building" color="255,230,230" fill="1" layer="-1.00" shape="1139.05,865.73 1117.95,625.24 1068.28,629.58 1075.55,716.00 1071.50,718.34 1066.57,718.78 1072.06,782.49 1076.98,782.03 1081.55,783.62 1088.98,869.95 1139.05,865.73"/>
    <poly id="286576588" type="building" color="255,230,230" fill="1" layer="-1.00" shape="2159.97,963.65 2157.54,952.94 2158.14,952.12 2158.03,951.15 2157.80,950.16 2157.47,949.22 2156.57,948.74 2156.41,948.05 2144.09,950.86 2147.66,966.46 2159.97,963.65"/>
    <poly id="286576595" type="building" color="255,230,230" fill="1" layer="-1.00" shape="1888.91,1050.57 1881.96,1051.24 1883.00,1062.83 1886.23,1062.52 1886.78,1063.16 1887.44,1063.32 1888.22,1063.24 1888.95,1062.95 1889.27,1062.24 1890.00,1062.17 1888.91,1050.57"/>
    <poly id="286576597" type="building" color="255,230,230" fill="1" layer="-1.00" shape="1849.28,1052.65 1849.66,1057.63 1849.77,1057.63 1850.53,1065.86 1862.67,1064.65 1861.99,1056.49 1866.95,1056.03 1864.10,1025.07 1859.12,1025.53 1846.97,1026.72 1849.28,1052.65"/>
    <poly id="286576603" type="building" color="255,230,230" fill="1" layer="-1.00" shape="1088.06,1041.74 1087.58,1036.32 1080.66,1036.95 1066.69,1025.22 1064.13,1028.28 1059.63,1028.68 1056.57,1026.13 1042.36,1043.01 1064.77,1061.88 1081.17,1042.34 1088.06,1041.74"/>
    <poly id="286576604" type="building" color="255,230,230" fill="1" layer="-1.00" shape="1816.72,956.72 1817.84,960.55 1798.50,966.25 1811.15,1009.55 1830.52,1003.87 1832.22,1009.62 1832.51,1009.53 1851.69,1003.81 1836.16,951.04 1816.72,956.72"/>
    <poly id="286576612" type="building" color="255,230,230" fill="1" layer="-1.00" shape="2035.61,830.92 2032.14,819.22 2024.27,821.60 2023.05,817.53 2014.59,820.10 2017.78,831.73 2019.18,836.53 2027.24,834.18 2028.40,838.22 2036.94,835.74 2035.61,830.92"/>
    <poly id="286576616" type="building" color="255,230,230" fill="1" layer="-1.00" shape="1047.85,854.68 1046.77,841.89 1046.58,841.94 1034.96,842.92 1035.68,851.20 1036.67,851.10 1036.95,854.14 1038.29,855.29 1046.97,854.58 1046.99,854.76 1047.85,854.68"/>
    <poly id="286576621" type="building" color="255,230,230" fill="1" layer="-1.00" shape="1260.69,1007.17 1260.92,1009.69 1261.96,1021.57 1264.32,1021.37 1264.10,1019.17 1268.90,1018.82 1267.96,1005.95 1267.06,1005.22 1261.62,1005.62 1260.63,1006.50 1260.69,1007.17"/>
    <poly id="286576623" type="building" color="255,230,230" fill="1" layer="-1.00" shape="984.60,991.32 984.34,988.43 984.97,988.38 984.75,985.69 984.11,985.74 984.05,985.05 975.98,985.85 976.33,989.98 972.27,990.38 972.52,993.14 968.68,993.47 969.05,997.46 977.26,996.72 976.92,992.98 984.69,992.29 984.64,991.67 984.60,991.32"/>
    <poly id="286576624" type="building" color="255,230,230" fill="1" layer="-1.00" shape="1798.53,822.07 1798.68,838.59 1788.76,838.68 1788.92,849.96 1827.33,849.42 1826.98,840.97 1826.65,841.07 1823.25,829.37 1823.23,826.31 1822.63,826.31 1822.59,821.87 1798.53,822.07"/>
    <poly id="286576625" type="building" color="255,230,230" fill="1" layer="-1.00" shape="1766.39,827.32 1788.30,827.16 1788.17,804.70 1788.03,804.71 1787.94,790.59 1783.40,790.62 1770.28,790.79 1770.39,804.86 1763.68,804.91 1763.89,827.34 1766.39,827.32"/>
    <poly id="286576633" type="building" color="255,230,230" fill="1" layer="-1.00" shape="1260.92,1009.69 1260.69,1007.17 1253.65,1007.80 1253.92,1010.29 1254.91,1020.01 1259.35,1019.67 1259.40,1020.74 1258.01,1020.86 1258.35,1024.75 1262.22,1024.43 1261.96,1021.57 1260.92,1009.69"/>
    <poly id="286576635" type="building" color="255,230,230" fill="1" layer="-1.00" shape="1848.31,1047.85 1845.54,1017.75 1845.42,1016.41 1841.47,1016.81 1825.56,1018.44 1828.82,1054.55 1848.75,1052.83 1848.31,1047.85"/>
    <poly id="286576636" type="building" color="255,230,230" fill="1" layer="-1.00" shape="1841.45,1102.17 1840.87,1095.69 1836.88,1096.05 1836.69,1093.95 1830.18,1094.54 1831.27,1106.40 1837.04,1105.88 1837.16,1107.45 1841.47,1107.09 1841.59,1107.07 1841.14,1102.19 1841.45,1102.17"/>
    <poly id="286576645" type="building" color="255,230,230" fill="1" layer="-1.00" shape="1667.63,1047.80 1662.46,1025.86 1666.41,1024.92 1670.32,1023.98 1661.21,984.94 1660.24,980.76 1593.85,996.35 1596.42,1007.82 1586.43,1010.14 1593.93,1042.27 1595.95,1041.79 1600.24,1060.03 1601.03,1063.38 1667.63,1047.80"/>
    <poly id="286576648" type="building" color="255,230,230" fill="1" layer="-1.00" shape="1507.14,1094.68 1494.13,1046.06 1487.29,1021.10 1455.96,1029.54 1462.69,1054.37 1472.29,1089.96 1432.62,1100.90 1429.99,1105.69 1471.69,1127.16 1535.92,1109.84 1530.37,1088.60 1507.25,1095.07 1507.14,1094.68"/>
    <poly id="286576650" type="building" color="255,230,230" fill="1" layer="-1.00" shape="1849.62,891.08 1851.02,895.87 1860.82,893.03 1861.16,894.21 1862.18,894.80 1863.45,892.25 1870.66,890.18 1850.65,821.39 1823.25,829.37 1826.65,841.07 1826.98,840.97 1834.46,838.80 1849.62,891.08"/>
    <poly id="286576651" type="building" color="255,230,230" fill="1" layer="-1.00" shape="1295.54,1008.81 1294.96,1003.83 1287.31,921.99 1220.81,928.13 1222.78,949.86 1269.11,945.66 1274.73,1005.72 1275.31,1010.69 1275.81,1010.63 1276.27,1015.60 1295.48,1013.82 1295.02,1008.86 1295.54,1008.81"/>
    <poly id="286576654" type="building" color="255,230,230" fill="1" layer="-1.00" shape="1987.19,1000.28 1993.33,1039.38 1998.88,1038.15 1999.45,1040.57 1998.48,1040.78 2000.03,1047.61 2015.89,1044.04 2014.35,1037.18 2013.89,1037.29 2013.34,1034.85 2014.25,1034.64 2005.38,996.18 1987.19,1000.28"/>
    <poly id="286576655" type="building" color="255,230,230" fill="1" layer="-1.00" shape="1500.25,1123.60 1503.91,1139.26 1508.89,1138.09 1509.46,1140.55 1522.77,1137.42 1522.22,1134.97 1531.63,1132.77 1532.19,1135.22 1539.54,1133.49 1537.72,1125.70 1537.34,1125.78 1534.91,1115.44 1500.25,1123.60"/>
    <poly id="286576656" type="building" color="255,230,230" fill="1" layer="-1.00" shape="2050.63,920.43 2038.22,877.67 1990.36,891.55 1995.65,910.01 1995.40,910.08 2010.97,963.87 2004.38,965.74 2012.13,999.55 2068.72,983.20 2056.16,939.54 2061.60,937.91 2056.07,918.87 2050.63,920.43"/>
    <poly id="286576663" type="building" color="255,230,230" fill="1" layer="-1.00" shape="2271.32,881.86 2276.19,880.74 2275.99,879.88 2277.03,879.66 2279.10,876.36 2278.67,874.35 2279.33,874.21 2279.26,873.90 2253.70,879.84 2254.98,885.48 2265.97,882.92 2266.02,883.08 2271.32,881.86"/>
    <poly id="286576664" type="building" color="255,230,230" fill="1" layer="-1.00" shape="1183.39,1043.01 1182.45,1032.10 1189.85,1031.46 1189.93,1032.52 1190.11,1032.50 1188.15,1010.05 1164.39,1012.19 1167.21,1044.49 1168.24,1044.41 1168.68,1046.32 1175.63,1044.83 1175.53,1043.69 1183.39,1043.01"/>
    <poly id="286576666" type="building" color="255,230,230" fill="1" layer="-1.00" shape="984.05,985.05 983.46,978.45 972.72,979.39 972.41,975.57 966.31,976.09 966.65,980.09 969.95,979.82 970.15,982.27 972.72,982.05 973.10,985.97 975.97,985.68 975.98,985.85 984.05,985.05"/>
    <poly id="286576670" type="building" color="255,230,230" fill="1" layer="-1.00" shape="2063.44,1050.42 2062.96,1045.37 2062.52,1045.42 2061.96,1039.46 2057.09,1039.92 2057.22,1041.10 2054.45,1041.36 2055.23,1048.72 2056.08,1048.63 2056.45,1052.60 2060.71,1052.21 2060.58,1050.69 2063.44,1050.42"/>
    <poly id="286576677" type="building" color="255,230,230" fill="1" layer="-1.00" shape="2143.88,1029.67 2143.95,1029.98 2148.69,1028.88 2147.61,1024.30 2148.00,1024.20 2146.26,1016.80 2141.17,1018.00 2141.47,1019.28 2139.17,1019.82 2140.52,1025.63 2140.26,1025.70 2140.66,1027.43 2141.83,1027.16 2142.51,1030.00 2143.88,1029.67"/>
    <poly id="286576678" type="building" color="255,230,230" fill="1" layer="-1.00" shape="2140.55,922.72 2145.36,921.37 2143.78,915.74 2144.89,915.62 2144.37,910.92 2140.20,911.40 2139.76,907.43 2125.08,909.03 2126.46,914.25 2106.45,919.86 2108.19,926.09 2104.98,926.94 2106.46,932.32 2140.55,922.72"/>
    <poly id="286576679" type="building" color="255,230,230" fill="1" layer="-1.00" shape="985.18,1061.28 975.94,1062.11 975.75,1059.90 980.66,1059.45 978.03,1029.71 952.20,1032.00 954.83,1061.75 969.42,1060.46 969.61,1062.65 954.42,1063.99 955.42,1076.48 989.33,1073.52 988.24,1061.00 985.18,1061.28"/>
    <poly id="286576695" type="building" color="255,230,230" fill="1" layer="-1.00" shape="1131.11,953.36 1130.38,944.40 1137.41,943.81 1137.47,944.52 1138.22,944.45 1138.16,943.74 1152.40,942.56 1151.18,928.57 1151.87,928.50 1151.81,927.75 1151.12,927.82 1149.92,914.51 1150.63,914.45 1150.56,913.70 1149.86,913.77 1148.72,899.76 1134.28,901.01 1134.22,900.29 1133.47,900.36 1133.54,901.07 1119.92,902.23 1119.86,901.53 1119.11,901.59 1119.18,902.29 1105.56,903.45 1105.50,902.75 1104.76,902.81 1104.81,903.53 1091.21,904.69 1091.14,903.98 1090.40,904.05 1090.46,904.75 1076.27,905.97 1077.42,919.87 1076.72,919.93 1076.78,920.67 1077.48,920.62 1078.60,934.05 1077.89,934.10 1077.95,934.85 1078.66,934.79 1078.65,934.68 1083.49,934.28 1084.62,947.88 1080.60,948.21 1080.59,947.99 1080.04,948.04 1080.09,948.56 1094.32,947.39 1094.38,948.09 1095.12,948.03 1095.07,947.33 1108.68,946.19 1108.74,946.90 1109.48,946.84 1109.43,946.14 1123.03,945.00 1123.09,945.71 1123.84,945.65 1123.78,944.93 1125.80,944.77 1126.54,953.74 1131.11,953.36"/>
    <poly id="286576697" type="building" color="255,230,230" fill="1" layer="-1.00" shape="1177.32,958.19 1174.19,921.91 1174.90,921.84 1174.87,921.51 1166.82,922.12 1165.99,912.52 1165.87,911.17 1162.79,911.43 1155.89,912.04 1156.32,917.02 1159.42,954.65 1159.90,959.63 1160.96,959.53 1174.83,958.36 1177.32,958.19"/>
    <poly id="286576698" type="building" color="255,230,230" fill="1" layer="-1.00" shape="1235.36,1129.90 1286.40,1115.87 1287.59,1120.20 1316.88,1112.27 1305.64,1071.10 1276.25,1079.12 1276.77,1081.04 1272.17,1082.29 1271.65,1080.38 1242.16,1088.44 1242.68,1090.39 1238.13,1091.64 1237.55,1089.71 1225.20,1093.11 1235.36,1129.90"/>
    <poly id="286576701" type="building" color="255,230,230" fill="1" layer="-1.00" shape="1820.53,1100.47 1816.26,1100.86 1815.79,1095.87 1812.22,1096.22 1812.12,1095.21 1808.99,1095.52 1809.09,1096.52 1808.47,1096.57 1809.41,1106.42 1813.67,1106.00 1814.17,1111.18 1817.89,1110.87 1817.46,1105.72 1820.98,1105.37 1820.53,1100.47"/>
    <poly id="286576704" type="building" color="255,230,230" fill="1" layer="-1.00" shape="2241.05,848.68 2242.31,853.05 2266.48,846.54 2271.28,845.16 2271.22,844.93 2274.94,843.86 2274.40,841.97 2274.95,841.81 2274.20,839.24 2273.66,839.40 2272.70,836.10 2268.97,837.15 2267.15,830.82 2238.29,839.16 2241.05,848.68"/>
    <poly id="286576708" type="building" color="255,230,230" fill="1" layer="-1.00" shape="1243.37,1013.80 1239.17,1014.18 1238.01,1001.15 1234.75,1001.41 1236.25,1020.20 1240.52,1019.87 1240.90,1023.83 1245.69,1023.41 1245.90,1025.56 1248.19,1025.36 1247.06,1013.47 1246.84,1010.94 1246.83,1010.82 1243.09,1011.21 1243.37,1013.80"/>
    <poly id="286576710" type="building" color="255,230,230" fill="1" layer="-1.00" shape="1567.13,923.94 1564.03,924.79 1567.46,937.39 1574.91,935.40 1574.86,935.14 1577.23,934.48 1578.22,938.20 1586.32,936.06 1586.03,934.92 1601.09,930.83 1601.25,931.44 1605.54,930.29 1593.71,886.32 1559.39,895.50 1567.13,923.94"/>
    <poly id="286576713" type="building" color="255,230,230" fill="1" layer="-1.00" shape="1750.83,1074.89 1749.83,1063.99 1747.71,1064.17 1748.01,1067.48 1741.64,1068.04 1741.92,1071.07 1741.60,1071.09 1741.69,1072.17 1742.01,1072.15 1742.32,1075.61 1743.64,1075.49 1743.72,1076.38 1746.48,1076.13 1746.40,1075.28 1750.83,1074.89"/>
    <poly id="286576714" type="building" color="255,230,230" fill="1" layer="-1.00" shape="1758.89,1069.52 1758.66,1066.90 1759.94,1066.79 1759.58,1063.10 1749.83,1063.99 1750.83,1074.89 1755.27,1074.50 1755.34,1075.38 1758.06,1075.13 1757.97,1074.18 1759.30,1074.08 1758.99,1070.60 1759.31,1070.58 1759.21,1069.48 1758.89,1069.52"/>
    <poly id="286576716" type="building" color="255,230,230" fill="1" layer="-1.00" shape="1845.83,1109.02 1845.48,1105.13 1850.94,1104.60 1851.07,1106.07 1854.40,1105.77 1853.19,1092.45 1846.84,1093.02 1847.62,1101.61 1841.45,1102.17 1841.14,1102.19 1841.59,1107.07 1841.47,1107.09 1841.74,1110.00 1841.96,1112.18 1846.09,1111.78 1845.83,1109.02"/>
    <poly id="286576717" type="building" color="255,230,230" fill="1" layer="-1.00" shape="1758.66,1116.69 1758.73,1117.36 1766.43,1116.63 1765.69,1107.61 1765.35,1102.62 1763.60,1102.78 1763.52,1101.77 1759.18,1102.15 1759.27,1103.15 1757.40,1103.31 1758.29,1112.77 1758.27,1113.52 1756.78,1113.65 1757.08,1116.85 1758.66,1116.69"/>
    <poly id="286576722" type="building" color="255,230,230" fill="1" layer="-1.00" shape="1158.90,1018.29 1157.77,1004.68 1158.47,1004.62 1158.42,1003.87 1157.71,1003.93 1156.53,989.69 1142.29,990.83 1142.23,990.12 1141.49,990.18 1141.54,990.90 1127.92,991.98 1127.87,991.28 1127.12,991.33 1127.18,992.04 1122.94,992.38 1117.60,992.91 1113.46,993.26 1113.41,992.55 1112.66,992.61 1112.72,993.33 1099.11,994.49 1099.05,993.79 1098.30,993.85 1098.36,994.55 1084.11,995.78 1084.16,996.32 1084.69,996.27 1084.68,996.01 1088.93,995.64 1090.14,1009.71 1085.34,1010.11 1085.33,1010.01 1084.62,1010.06 1084.69,1010.81 1085.40,1010.76 1086.56,1024.36 1085.85,1024.42 1085.91,1025.17 1086.63,1025.11 1087.58,1036.32 1088.06,1041.74 1089.10,1053.67 1103.28,1052.45 1103.34,1053.15 1104.09,1053.09 1104.03,1052.39 1117.64,1051.21 1117.70,1051.92 1118.45,1051.85 1118.38,1051.15 1132.00,1049.98 1132.06,1050.68 1132.81,1050.62 1132.74,1049.92 1146.35,1048.74 1146.42,1049.45 1147.16,1049.38 1147.10,1048.67 1161.33,1047.45 1160.90,1042.47 1160.15,1033.40 1160.85,1033.34 1160.80,1032.59 1160.09,1032.65 1158.96,1019.04 1159.67,1018.98 1159.60,1018.23 1158.90,1018.29"/>
    <poly id="286576724" type="building" color="255,230,230" fill="1" layer="-1.00" shape="2212.91,1025.13 2209.10,1010.41 2212.56,1009.55 2212.05,1007.49 2212.83,1007.30 2210.50,998.20 2206.24,999.30 2205.89,997.90 2195.64,1000.56 2203.96,1032.61 2214.16,1029.97 2214.04,1029.47 2217.23,1028.60 2216.25,1024.95 2213.09,1025.80 2212.91,1025.13"/>
    <poly id="286576726" type="building" color="255,230,230" fill="1" layer="-1.00" shape="2275.83,863.04 2278.65,862.39 2277.82,858.79 2278.33,858.66 2277.06,853.10 2274.19,853.75 2273.24,849.67 2268.37,850.80 2253.23,854.12 2255.70,865.23 2268.90,862.29 2272.33,861.61 2272.79,863.68 2273.79,863.52 2275.83,863.04"/>
    <poly id="286576728" type="building" color="255,230,230" fill="1" layer="-1.00" shape="1079.26,877.36 1075.74,832.77 1046.04,835.08 1046.58,841.94 1046.77,841.89 1047.85,854.68 1053.86,854.16 1053.76,853.06 1058.50,852.66 1058.74,855.37 1061.44,855.14 1062.25,864.48 1070.76,863.73 1072.36,882.97 1079.68,882.34 1079.26,877.36"/>
    <poly id="286576729" type="building" color="255,230,230" fill="1" layer="-1.00" shape="2150.29,879.50 2149.35,876.27 2148.53,876.50 2146.60,869.91 2147.41,869.67 2147.33,869.38 2144.45,870.21 2143.54,867.16 2140.60,867.98 2125.98,872.24 2126.80,875.04 2137.75,871.87 2139.02,876.18 2135.35,877.26 2137.13,883.30 2150.29,879.50"/>
    <poly id="286576731" type="building" color="255,230,230" fill="1" layer="-1.00" shape="2180.42,867.37 2186.22,866.65 2185.22,858.14 2187.84,857.83 2187.39,854.07 2187.36,853.81 2181.77,854.44 2178.55,854.76 2178.51,854.37 2177.37,854.50 2177.42,854.94 2174.92,855.18 2175.72,862.36 2174.83,862.46 2175.44,867.93 2180.42,867.37"/>
    <poly id="286576737" type="building" color="255,230,230" fill="1" layer="-1.00" shape="1336.06,1081.38 1333.79,1072.82 1332.43,1072.04 1331.98,1070.29 1333.04,1070.03 1331.78,1065.28 1314.91,1069.77 1316.12,1074.52 1319.85,1087.33 1320.21,1087.22 1320.75,1089.14 1320.04,1089.35 1328.54,1121.00 1361.87,1112.17 1353.12,1080.76 1350.60,1077.52 1336.06,1081.38"/>
    <poly id="286576745" type="building" color="255,230,230" fill="1" layer="-1.00" shape="2135.45,902.72 2135.91,906.77 2141.23,906.22 2146.20,905.64 2145.09,896.15 2146.08,895.34 2145.78,892.81 2144.64,892.26 2144.57,891.69 2143.37,891.82 2142.73,886.31 2138.95,886.75 2139.60,892.26 2132.40,893.10 2133.25,900.45 2132.66,901.61 2135.45,902.72"/>
    <poly id="286576746" type="building" color="255,230,230" fill="1" layer="-1.00" shape="1155.65,980.51 1154.45,966.52 1155.16,966.45 1155.10,965.71 1154.39,965.77 1153.17,951.53 1138.84,952.72 1138.78,952.01 1138.03,952.07 1138.09,952.78 1131.11,953.36 1126.54,953.74 1124.54,953.90 1124.48,953.20 1123.73,953.26 1123.79,953.96 1110.18,955.09 1110.12,954.39 1109.37,954.45 1109.42,955.15 1095.81,956.28 1095.75,955.57 1095.01,955.63 1095.07,956.35 1085.82,957.11 1080.84,957.54 1082.05,971.72 1081.34,971.79 1081.40,972.54 1082.11,972.47 1082.10,972.37 1086.90,971.97 1088.10,986.03 1083.85,986.39 1083.83,986.14 1083.28,986.19 1083.33,986.72 1097.56,985.51 1097.62,986.21 1098.37,986.15 1098.31,985.44 1111.92,984.27 1111.98,984.98 1112.73,984.92 1112.67,984.21 1116.82,983.86 1117.60,992.91 1122.94,992.38 1122.25,983.30 1126.31,982.97 1126.37,983.67 1127.12,983.61 1127.06,982.90 1140.67,981.77 1140.73,982.47 1141.48,982.41 1141.42,981.71 1155.65,980.51"/>
    <poly id="286576765" type="building" color="255,230,230" fill="1" layer="-1.00" shape="2136.90,945.00 2150.62,941.02 2149.51,937.20 2156.62,935.12 2156.07,933.20 2156.21,932.14 2156.15,931.09 2155.88,930.10 2155.39,929.23 2154.66,928.38 2154.13,926.48 2140.30,930.46 2139.00,934.49 2138.58,934.60 2140.09,939.55 2139.50,939.73 2140.64,943.82 2136.86,944.88 2136.90,945.00"/>
    <poly id="286576766" type="building" color="255,230,230" fill="1" layer="-1.00" shape="1313.86,892.86 1349.53,889.80 1347.60,867.11 1383.72,863.90 1377.98,797.86 1342.12,800.98 1326.85,624.22 1291.24,627.33 1293.00,647.86 1285.60,648.49 1291.67,719.54 1291.98,719.51 1293.57,738.11 1294.24,749.26 1299.98,816.56 1301.30,831.78 1308.69,831.15 1310.07,847.79 1313.86,892.86"/>
    <poly id="286576772" type="building" color="255,230,230" fill="1" layer="-1.00" shape="1932.00,996.59 1943.77,995.98 1946.15,998.13 1950.22,1047.81 1945.93,1048.17 1946.46,1054.63 1947.56,1054.51 1948.37,1055.28 1948.45,1056.38 1959.69,1055.44 1959.00,1047.41 1963.39,1047.05 1957.90,980.01 1953.11,981.44 1914.87,992.45 1918.25,1033.47 1932.67,1032.27 1929.95,999.04 1932.00,996.59"/>
    <poly id="286576778" type="building" color="255,230,230" fill="1" layer="-1.00" shape="1552.36,927.76 1533.03,856.72 1513.66,862.19 1523.08,896.40 1518.20,893.65 1486.23,902.32 1483.31,907.21 1487.20,920.64 1494.14,918.74 1498.74,935.44 1493.98,936.73 1495.04,940.57 1492.66,941.22 1496.39,954.55 1497.72,959.36 1510.80,955.83 1509.52,951.00 1555.28,938.63 1554.00,933.80 1552.36,927.76"/>
    <poly id="286576780" type="building" color="255,230,230" fill="1" layer="-1.00" shape="1870.07,1099.39 1874.54,1098.95 1874.27,1094.83 1873.50,1094.89 1873.10,1090.65 1872.24,1090.73 1871.69,1090.26 1869.80,1090.44 1869.34,1091.00 1866.12,1091.30 1866.52,1095.58 1865.74,1095.64 1866.08,1099.64 1860.53,1100.14 1860.64,1101.33 1861.20,1107.61 1866.80,1107.08 1866.54,1104.33 1870.51,1103.97 1870.07,1099.39"/>
    <poly id="286576788" type="building" color="255,230,230" fill="1" layer="-1.00" shape="1798.98,1007.48 1787.43,967.78 1787.01,966.75 1784.98,966.61 1779.46,966.24 1775.85,970.00 1776.86,980.82 1762.99,982.10 1761.67,967.98 1741.07,969.87 1740.53,964.16 1732.74,963.75 1726.99,965.10 1727.22,967.67 1728.42,967.59 1730.46,989.94 1734.75,990.18 1736.88,1013.23 1798.98,1007.48"/>
    <poly id="286576791" type="building" color="255,230,230" fill="1" layer="-1.00" shape="2257.44,924.19 2257.81,923.99 2258.12,923.70 2258.33,923.33 2258.42,922.92 2258.40,922.50 2260.16,922.09 2260.23,922.35 2260.52,922.28 2259.30,917.42 2254.42,896.71 2246.28,898.68 2245.39,895.02 2239.35,896.48 2245.40,922.00 2246.59,926.85 2248.08,926.47 2248.21,926.94 2252.23,925.97 2252.11,925.52 2257.44,924.19"/>
    <poly id="286576796" type="building" color="255,230,230" fill="1" layer="-1.00" shape="2132.39,1031.21 2131.55,1027.74 2140.26,1025.70 2140.52,1025.63 2139.17,1019.82 2137.93,1014.53 2145.84,1012.68 2144.80,1008.23 2143.80,1008.46 2142.78,1004.09 2144.23,1003.76 2143.22,999.41 2142.92,999.49 2129.80,1002.52 2132.92,1015.62 2121.31,1018.38 2122.62,1023.87 2123.20,1023.74 2125.14,1031.88 2129.69,1030.80 2129.90,1031.80 2132.39,1031.21"/>
    <poly id="286576798" type="building" color="255,230,230" fill="1" layer="-1.00" shape="922.94,1079.25 937.60,1078.02 937.66,1078.77 939.55,1078.62 939.49,1077.87 951.45,1076.88 951.04,1071.89 947.43,1032.46 936.94,1033.30 936.96,1033.52 924.58,1034.64 926.98,1060.98 925.75,1061.13 925.01,1061.97 925.20,1064.43 919.28,1064.94 920.36,1077.05 920.56,1077.77 920.96,1078.40 921.52,1078.87 922.20,1079.17 922.94,1079.25"/>
    <poly id="286576799" type="building" color="255,230,230" fill="1" layer="-1.00" shape="1130.51,1239.81 1131.41,1243.68 1129.96,1246.11 1132.31,1247.51 1130.88,1249.86 1132.32,1250.76 1131.68,1251.79 1132.53,1255.24 1133.56,1255.89 1132.68,1257.34 1135.02,1258.77 1135.96,1262.74 1175.30,1253.28 1177.68,1254.76 1185.48,1252.90 1186.84,1250.65 1188.90,1259.75 1204.23,1257.45 1193.27,1226.72 1170.30,1232.24 1169.85,1230.36 1130.51,1239.81"/>
    <poly id="286576801" type="building" color="255,230,230" fill="1" layer="-1.00" shape="1221.32,1252.45 1221.97,1255.71 1228.75,1254.37 1227.81,1249.53 1229.43,1249.20 1228.50,1244.55 1226.94,1244.87 1226.09,1240.60 1219.25,1241.96 1220.04,1246.01 1218.26,1246.27 1216.66,1246.90 1216.17,1247.32 1215.95,1248.22 1215.88,1248.99 1216.13,1250.29 1216.39,1251.15 1216.75,1251.98 1217.21,1252.42 1217.68,1252.77 1218.54,1252.88 1219.78,1252.77 1221.32,1252.45"/>
    <poly id="286576804" type="building" color="255,230,230" fill="1" layer="-1.00" shape="2187.14,893.79 2178.45,894.79 2179.46,903.50 2182.43,903.15 2182.77,906.18 2183.65,906.08 2183.92,908.46 2186.34,908.20 2189.91,939.72 2221.63,936.13 2221.47,934.64 2225.94,934.13 2223.42,911.97 2219.44,912.42 2218.23,901.61 2204.22,903.17 2203.83,899.59 2197.25,900.35 2197.10,899.04 2193.58,899.44 2192.88,893.46 2187.19,894.13 2187.14,893.79"/>
    <poly id="286576807" type="building" color="255,230,230" fill="1" layer="-1.00" shape="1904.24,1094.73 1904.98,1102.96 1909.47,1102.55 1909.38,1101.59 1912.03,1101.36 1913.03,1112.42 1921.33,1110.58 1921.26,1109.92 1920.20,1100.68 1919.80,1100.71 1919.77,1100.37 1919.00,1100.45 1918.04,1089.79 1916.83,1089.90 1916.36,1084.72 1913.33,1084.99 1912.61,1084.38 1911.26,1084.50 1910.74,1085.22 1909.90,1085.29 1910.24,1089.16 1903.80,1089.74 1904.24,1094.73"/>
    <poly id="286576815" type="building" color="255,230,230" fill="1" layer="-1.00" shape="1335.84,1173.72 1321.27,1121.53 1253.73,1140.07 1256.17,1148.94 1256.48,1148.85 1257.90,1154.03 1244.60,1157.67 1245.25,1160.05 1237.53,1162.16 1243.18,1183.07 1241.88,1183.97 1243.32,1189.26 1244.79,1188.84 1248.73,1203.29 1269.38,1197.22 1278.63,1230.61 1327.19,1217.38 1323.12,1203.00 1342.54,1197.72 1342.51,1197.62 1335.84,1173.72"/>
    <poly id="286576817" type="building" color="255,230,230" fill="1" layer="-1.00" shape="2267.49,905.35 2281.41,902.16 2279.94,895.73 2278.87,895.97 2278.22,893.19 2285.81,891.50 2284.06,883.85 2280.26,884.71 2280.11,884.04 2268.65,886.67 2269.63,890.93 2265.75,891.83 2266.46,894.90 2264.28,895.41 2262.66,888.22 2264.25,887.45 2265.36,886.38 2266.08,885.02 2266.23,883.81 2266.02,883.08 2265.97,882.92 2254.98,885.48 2259.91,907.07 2267.49,905.35"/>
    <poly id="286576818" type="building" color="255,230,230" fill="1" layer="-1.00" shape="2212.53,834.21 2212.11,830.49 2211.98,829.23 2208.14,829.66 2208.17,830.21 2204.89,830.57 2204.93,831.12 2201.65,831.46 2201.74,832.03 2198.45,832.39 2198.52,832.94 2195.22,833.30 2195.43,835.14 2184.04,836.42 2184.19,837.78 2176.74,838.60 2178.51,854.37 2178.55,854.76 2181.77,854.44 2187.36,853.81 2187.39,854.07 2197.52,852.87 2196.36,842.98 2212.96,841.15 2213.29,841.10 2212.53,834.21"/>
    <poly id="286576819" type="building" color="255,230,230" fill="1" layer="-1.00" shape="2153.09,1006.04 2152.21,1002.18 2155.78,1001.34 2152.15,985.78 2146.66,987.05 2144.88,979.37 2132.11,982.34 2132.28,983.10 2127.86,984.13 2127.68,983.37 2126.22,983.71 2127.39,988.62 2128.04,988.47 2129.78,996.06 2134.92,994.88 2135.77,998.57 2142.35,997.04 2142.92,999.49 2143.22,999.41 2144.23,1003.76 2142.78,1004.09 2143.80,1008.46 2144.80,1008.23 2144.75,1007.97 2153.09,1006.04"/>
    <poly id="286576823" type="building" color="255,230,230" fill="1" layer="-1.00" shape="1008.04,1254.37 1007.79,1253.75 1007.39,1253.21 1006.85,1252.82 1006.21,1252.59 1005.55,1252.53 1004.79,1252.53 1004.73,1249.02 929.91,1250.04 929.98,1256.89 923.90,1256.96 924.19,1277.81 999.01,1276.77 998.97,1275.50 1006.65,1275.39 1007.70,1275.26 1008.69,1274.90 1009.59,1274.35 1010.34,1273.61 1010.93,1272.74 1011.31,1271.75 1011.48,1270.71 1011.43,1269.66 1011.16,1268.64 1008.04,1254.37"/>
    <poly id="286576831" type="building" color="255,230,230" fill="1" layer="-1.00" shape="1448.22,974.20 1431.97,915.58 1431.73,915.64 1427.99,901.73 1430.41,901.08 1431.34,904.53 1434.82,903.59 1433.90,900.14 1434.29,900.04 1430.50,885.98 1361.10,904.67 1368.33,931.52 1371.39,930.69 1384.62,978.41 1381.59,979.25 1384.29,988.67 1387.34,987.81 1387.48,988.31 1408.80,982.41 1409.41,984.66 1409.74,984.57 1409.70,984.42 1447.79,974.12 1447.84,974.29 1448.22,974.20"/>
    <poly id="286576834" type="building" color="255,230,230" fill="1" layer="-1.00" shape="2202.11,888.38 2223.43,885.95 2223.94,890.62 2232.96,889.66 2231.80,879.67 2228.02,880.20 2215.19,881.63 2214.80,878.21 2198.62,880.03 2198.36,877.78 2192.77,878.39 2192.86,879.18 2190.62,879.42 2190.50,878.34 2185.21,878.93 2184.62,873.61 2190.11,872.96 2189.74,869.77 2177.71,871.11 2177.99,873.72 2176.11,873.92 2176.81,880.17 2179.27,879.88 2179.93,885.65 2191.17,884.38 2191.04,883.15 2196.43,882.57 2197.14,888.94 2202.11,888.38"/>